# fhb
# MODFLOW-2005 Example problem documented in: 
#   Harbaugh, A.W., 2005, MODFLOW-2005, the U.S. Geological Survey modular ground-water model -- the Ground-Water Flow Process: U.S. Geological Survey Techniques and Methods 6-A16.
#   Harbaugh, A.W., Banta, E.R., Hill, M.C. and McDonald, M.G., 2000, MODFLOW-2000, The U.S. Geological Survey Modular Ground-Water Model - User Guide to Modularization Concepts and the Ground-Water Flow Process: U.S Geological Survey Open-File Report 2000-92, 121 p., https://doi.org/10.3133/ofr200092
#   Leake and Lilly, 1997, Documentation of computer program (FHB1) for assignment of transient specified-flow and specified-head boundaries in applications of the modular finite-diference ground-water flow model (MODFLOW): U.S Geological Survey Open-File Report 97-571       , 50 p., https://doi.org/10.3133/ofr97571
# 
#      -Comments are preceded by a # sign
#
#-----------------------------------------------------------------------------------------------------------------------------------------------------
    1    3   10    3    4    0      # NLAY,NROW,NCOL,NPER,ITMUNI,LENUNI
 0
CONSTANT   1.000000E+03             # DELR
CONSTANT   1.000000E+03             # DELC
CONSTANT   5.000000E+01             # TOP of system          
CONSTANT  -2.000000E+02             # Layer BOTM layer   1
 4.000E+02        10 1.000E+00  TR  # PERLEN,NSTP,TSMULT,Ss/tr
 2.000E+02         4 1.000E+00  TR  # PERLEN,NSTP,TSMULT,Ss/tr
 4.000E+02         6 1.100E+00  TR  # PERLEN,NSTP,TSMULT,Ss/tr
