# ibsibs2k
# MODFLOW-2005 Example problem documented in: 
#   Harbaugh, A.W., 2005, MODFLOW-2005, the U.S. Geological Survey modular ground-water model -- the Ground-Water Flow Process: U.S. Geological Survey Techniques and Methods 6-A16.
#   Harbaugh, A.W., Banta, E.R., Hill, M.C. and McDonald, M.G., 2000, MODFLOW-2000, The U.S. Geological Survey Modular Ground-Water Model - User Guide to Modularization Concepts and the Ground-Water Flow Process: U.S Geological Survey Open-File Report 2000-92, 121 p., https://doi.org/10.3133/ofr200092
#   Leake, S.A., and Prudic, D.E., 1991, Documentation of a computer program to simulate aquifer-system compaction using the modular finite-difference ground-water flow model: U.S. Geological Survey Techniques of Water- Resources Investigations, book 6, chap. A2, 68 p.
# 
# Input modified for MODFLOW-OWHM by including the BAS options:
#    NOFREE  BUDGETDB ./output/ibs2k_VolumetricBudget.txt  CUMULATIVE_HEAD_CHANGE ./output/ibs2k_CumHCHG.txt  PRINT_HEAD NPER ./output/ibs2k_Head.txt
#
#-----------------------------------------------------------------------------------------------------------------------------------------------------
#
#MODULAR MODEL STORAGE-DEPLETION TEST PROBLEM     --TESTS CALCULATION OF ULTIMA
#COMPACTION OF INTERBEDS                                                       
NOFREE  BUDGETDB ./output/ibs2k_VolumetricBudget.txt  CUMULATIVE_HEAD_CHANGE ./output/ibs2k_CumHCHG.txt  PRINT_HEAD NPER ./output/ibs2k_Head.txt
INTERNAL          1 (20I4)    6                   # IBOUND layer   1
  -1   1   1   1   1   1   1   1   1   1   1  -1
  -1   1   1   1   1   1   1   1   1   1   1  -1
  -1   1   1   1   1   1   1   1   1   1   1  -1
  -1   1   1   1   1   1   1   1   1   1   1  -1
  -1   1   1   1   1   1   1   1   1   1   1  -1
  -1   1   1   1   1   1   1   1   1   1   1  -1
  -1   1   1   1   1   1   1   1   1   1   1  -1
  -1   1   1   1   1   1   1   1   1   1   1  -1
  -1   1   1   1   1   1   1   1   1   1   1  -1
  -1   1   1   1   1   1   1   1   1   1   1  -1
INTERNAL          1 (20I4)    6                    # IBOUND layer   2
  -1   1   1   1   1   1   1   1   1   1   1  -1
  -1   1   1   1   1   1   1   1   1   1   1  -1
  -1   1   1   1   1   1   1   1   1   1   1  -1
  -1   1   1   1   1   1   1   1   1   1   1  -1
  -1   1   1   1   1   1   1   1   1   1   1  -1
  -1   1   1   1   1   1   1   1   1   1   1  -1
  -1   1   1   1   1   1   1   1   1   1   1  -1
  -1   1   1   1   1   1   1   1   1   1   1  -1
  -1   1   1   1   1   1   1   1   1   1   1  -1
  -1   1   1   1   1   1   1   1   1   1   1  -1
    444.44                                         # HNOFLO
INTERNAL   1.000000E+00 (10F13.0)    0             # Initial Head layer   1
 0.000000E+00 1.100000E+01 1.200000E+01 1.300000E+01 1.400000E+01 1.500000E+01 1.600000E+01 1.700000E+01 1.800000E+01 1.900000E+01
 2.000000E+01 1.100000E+01
 0.000000E+00 1.100000E+01 1.200000E+01 1.300000E+01 1.400000E+01 1.500000E+01 1.600000E+01 1.700000E+01 1.800000E+01 1.900000E+01
 2.000000E+01 1.100000E+01
 0.000000E+00 1.100000E+01 1.200000E+01 1.300000E+01 1.400000E+01 1.500000E+01 1.600000E+01 1.700000E+01 1.800000E+01 1.900000E+01
 2.000000E+01 1.100000E+01
 0.000000E+00 1.100000E+01 1.200000E+01 1.300000E+01 1.400000E+01 1.500000E+01 1.600000E+01 1.700000E+01 1.800000E+01 1.900000E+01
 2.000000E+01 1.100000E+01
 0.000000E+00 1.100000E+01 1.200000E+01 1.300000E+01 1.400000E+01 1.500000E+01 1.600000E+01 1.700000E+01 1.800000E+01 1.900000E+01
 2.000000E+01 1.100000E+01
 0.000000E+00 1.100000E+01 1.200000E+01 1.300000E+01 1.400000E+01 1.500000E+01 1.600000E+01 1.700000E+01 1.800000E+01 1.900000E+01
 2.000000E+01 1.100000E+01
 0.000000E+00 1.100000E+01 1.200000E+01 1.300000E+01 1.400000E+01 1.500000E+01 1.600000E+01 1.700000E+01 1.800000E+01 1.900000E+01
 2.000000E+01 1.100000E+01
 0.000000E+00 1.100000E+01 1.200000E+01 1.300000E+01 1.400000E+01 1.500000E+01 1.600000E+01 1.700000E+01 1.800000E+01 1.900000E+01
 2.000000E+01 1.100000E+01
 0.000000E+00 1.100000E+01 1.200000E+01 1.300000E+01 1.400000E+01 1.500000E+01 1.600000E+01 1.700000E+01 1.800000E+01 1.900000E+01
 2.000000E+01 1.100000E+01
 0.000000E+00 1.100000E+01 1.200000E+01 1.300000E+01 1.400000E+01 1.500000E+01 1.600000E+01 1.700000E+01 1.800000E+01 1.900000E+01
 2.000000E+01 1.100000E+01
INTERNAL   1.000000E+00 (10F13.0)    0             # Initial Head layer   2
 0.000000E+00 1.100000E+01 1.200000E+01 1.300000E+01 1.400000E+01 1.500000E+01 1.600000E+01 1.700000E+01 1.800000E+01 1.900000E+01
 2.000000E+01 1.100000E+01
 0.000000E+00 1.100000E+01 1.200000E+01 1.300000E+01 1.400000E+01 1.500000E+01 1.600000E+01 1.700000E+01 1.800000E+01 1.900000E+01
 2.000000E+01 1.100000E+01
 0.000000E+00 1.100000E+01 1.200000E+01 1.300000E+01 1.400000E+01 1.500000E+01 1.600000E+01 1.700000E+01 1.800000E+01 1.900000E+01
 2.000000E+01 1.100000E+01
 0.000000E+00 1.100000E+01 1.200000E+01 1.300000E+01 1.400000E+01 1.500000E+01 1.600000E+01 1.700000E+01 1.800000E+01 1.900000E+01
 2.000000E+01 1.100000E+01
 0.000000E+00 1.100000E+01 1.200000E+01 1.300000E+01 1.400000E+01 1.500000E+01 1.600000E+01 1.700000E+01 1.800000E+01 1.900000E+01
 2.000000E+01 1.100000E+01
 0.000000E+00 1.100000E+01 1.200000E+01 1.300000E+01 1.400000E+01 1.500000E+01 1.600000E+01 1.700000E+01 1.800000E+01 1.900000E+01
 2.000000E+01 1.100000E+01
 0.000000E+00 1.100000E+01 1.200000E+01 1.300000E+01 1.400000E+01 1.500000E+01 1.600000E+01 1.700000E+01 1.800000E+01 1.900000E+01
 2.000000E+01 1.100000E+01
 0.000000E+00 1.100000E+01 1.200000E+01 1.300000E+01 1.400000E+01 1.500000E+01 1.600000E+01 1.700000E+01 1.800000E+01 1.900000E+01
 2.000000E+01 1.100000E+01
 0.000000E+00 1.100000E+01 1.200000E+01 1.300000E+01 1.400000E+01 1.500000E+01 1.600000E+01 1.700000E+01 1.800000E+01 1.900000E+01
 2.000000E+01 1.100000E+01
 0.000000E+00 1.100000E+01 1.200000E+01 1.300000E+01 1.400000E+01 1.500000E+01 1.600000E+01 1.700000E+01 1.800000E+01 1.900000E+01
 2.000000E+01 1.100000E+01
