# mnw1
# MODFLOW-2005 Example problem documented in: 
#   Harbaugh, A.W., 2005, MODFLOW-2005, the U.S. Geological Survey modular ground-water model -- the Ground-Water Flow Process: U.S. Geological Survey Techniques and Methods 6-A16.
#   Harbaugh, A.W., Banta, E.R., Hill, M.C. and McDonald, M.G., 2000, MODFLOW-2000, The U.S. Geological Survey Modular Ground-Water Model - User Guide to Modularization Concepts and the Ground-Water Flow Process: U.S Geological Survey Open-File Report 2000-92, 121 p., https://doi.org/10.3133/ofr200092
#   Halford, K.J. and Hanson R.T., 2002, User Guide for the Drawdown-Limited, Multi-Node Well (MNW) Package for the U.S. Geological Survey’s Modular Three-Dimensional Finite-Difference Ground-Water Flow Model, Versions MODFLOW-96 and MODFLOW-2000t: U.S. Geological Survey Open-File Report 02-293, 33 p.
# 
#      -Comments are preceded by a # sign
#
#-----------------------------------------------------------------------------------------------------------------------------------------------------

    2   21   14    5    4    0      # NLAY,NROW,NCOL,NPER,ITMUNI,LENUNI
 0 0                                # LAYCBD
CONSTANT   2.500000E+03             # DELR
CONSTANT   2.500000E+03             # DELC
CONSTANT   5.000000E+02             # TOP of system          
CONSTANT   5.000000E+01             # Layer BOTM layer   1
CONSTANT   0.000000E+01             # Layer BOTM layer   2
 5.000E+05        15 1.3        SS  # PERLEN,NSTP,TSMULT,Ss/tr
 5.000E+05        15 1.300E+00  SS  # PERLEN,NSTP,TSMULT,Ss/tr
 6.000E+01        15 1.300E+00  TR  # PERLEN,NSTP,TSMULT,Ss/tr
 1.800E+02        15 1.300E+00  TR  # PERLEN,NSTP,TSMULT,Ss/tr
 7.301E+02        50 1.000E+00  TR  # PERLEN,NSTP,TSMULT,Ss/tr
