# str
# MODFLOW-2005 Example problem documented in: 
#   Harbaugh, A.W., 2005, MODFLOW-2005, the U.S. Geological Survey modular ground-water model -- the Ground-Water Flow Process: U.S. Geological Survey Techniques and Methods 6-A16.
#   Harbaugh, A.W., Banta, E.R., Hill, M.C. and McDonald, M.G., 2000, MODFLOW-2000, The U.S. Geological Survey Modular Ground-Water Model - User Guide to Modularization Concepts and the Ground-Water Flow Process: U.S Geological Survey Open-File Report 2000-92, 121 p., https://doi.org/10.3133/ofr200092
#   Prudic, D.E., 1989, Documentation of a computer program to simulate stream-aquifer relations using a modular, finite-difference, ground-water flow model: U.S Geological Survey Open-File Report 88-729, 113 p., https://doi.org/10.3133/ofr88729
# 
#      -Comments are preceded by a # sign
#
#-----------------------------------------------------------------------------------------------------------------------------------------------------

    1    6    6    1    1    0      # NLAY,NROW,NCOL,NPER,ITMUNI,LENUNI
 0
CONSTANT   1.000000E+03             # DELR
CONSTANT   1.000000E+03             # DELC
CONSTANT   6.000000E+02             # TOP of system          
CONSTANT   0.000000E+00             # Layer BOTM layer   1
 1.296E+06         3 1.500E+00  SS  # PERLEN,NSTP,TSMULT,Ss/tr
