# tc2hufv4
# MODFLOW-2005 Example problem documented in: 
#   Harbaugh, A.W., 2005, MODFLOW-2005, the U.S. Geological Survey modular ground-water model -- the Ground-Water Flow Process: U.S. Geological Survey Techniques and Methods 6-A16.
#   Harbaugh, A.W., Banta, E.R., Hill, M.C. and McDonald, M.G., 2000, MODFLOW-2000, The U.S. Geological Survey Modular Ground-Water Model - User Guide to Modularization Concepts and the Ground-Water Flow Process: U.S Geological Survey Open-File Report 2000-92, 121 p., https://doi.org/10.3133/ofr200092
#   Anderman, E.R., and Hill, M.C., 2000, MODFLOW-2000, the U.S. Geological Survey Modular Ground-Water Model - Documentation of the Hydrogeologic-Unit Flow (HUF) Package: U.S. Geological Survey Open-File Report 00-342, 89 p.
# 
#      -Comments are preceded by a # sign
#
#-----------------------------------------------------------------------------------------------------------------------------------------------------

4
ZLAY1
        39         1(I1,17I2)                   -2                      # DATA SET 4
2 3 2 1 1 1 2 2 1 1 1 0 0 0 0 0 0 0 layer 1
2 3 2 1 1 1 2 2 2 1 1 1 0 0 0 0 0 0 
2 3 2 2 1 2 2 3 2 1 1 1 1 0 0 0 0 0 
2 3 3 2 2 2 3 3 2 2 2 1 1 1 0 0 0 0 
2 3 3 3 3 3 3 3 3 3 2 1 1 1 1 0 0 0 
2 3 3 3 3 2 2 2 3 3 2 1 1 1 1 1 0 0 
2 3 3 3 3 2 1 2 3 3 2 2 2 1 1 1 1 0 
2 3 3 3 3 2 1 2 3 3 2 2 2 1 1 1 1 2 
2 3 3 3 3 2 2 2 3 3 2 1 2 1 1 1 2 2 
2 3 3 3 3 3 3 3 3 3 2 1 2 2 1 2 2 2 
3 3 3 3 3 3 3 3 3 3 2 1 2 2 1 2 2 2 
0 0 0 0 3 3 3 3 3 3 2 1 2 2 2 2 2 2 
0 0 0 0 0 3 3 3 3 3 2 2 2 2 2 2 2 1 
0 0 0 0 0 0 3 3 3 3 3 3 3 2 2 2 1 2 
0 0 0 0 0 0 0 2 2 2 3 3 3 3 2 2 1 2 
0 0 0 0 0 0 0 0 1 2 3 3 3 3 3 2 1 2 
0 0 0 0 0 0 0 0 0 2 3 3 3 3 3 2 2 2
0 0 0 0 0 0 0 0 0 0 3 3 3 3 3 2 2 2 
ZLAY2
        39         1(I1,17I2)                   -2                      # DATA SET 4
3 3 3 3 3 3 3 3 3 3 3 0 0 0 0 0 0 0 layer 2
3 3 3 3 3 3 3 4 4 4 3 3 0 0 0 0 0 0 
3 3 3 3 3 3 3 4 4 4 3 3 3 0 0 0 0 0 
3 3 3 3 3 3 4 4 4 4 4 4 3 3 0 0 0 0 
3 3 3 3 3 3 3 3 3 4 4 4 3 3 3 0 0 0 
3 3 3 3 3 2 2 2 3 4 4 4 3 3 2 2 0 0 
3 3 3 4 3 2 1 2 3 4 4 3 3 2 2 2 2 0 
3 3 3 3 3 2 1 2 3 4 4 3 2 2 2 2 2 3 
3 3 3 3 3 2 1 2 3 4 4 3 3 2 1 2 3 3 
3 3 3 3 3 2 2 2 3 3 3 3 3 2 1 2 3 3 
3 3 3 3 3 3 3 3 3 3 3 3 3 2 1 2 3 2 
0 0 0 0 3 3 3 3 3 3 3 3 3 2 2 2 2 2 
0 0 0 0 0 3 3 3 3 3 3 3 3 3 2 2 2 2 
0 0 0 0 0 0 3 3 3 3 3 3 3 3 3 2 1 2 
0 0 0 0 0 0 0 3 3 3 3 3 3 3 3 2 2 2 
0 0 0 0 0 0 0 0 3 3 3 3 3 3 3 3 3 3 
0 0 0 0 0 0 0 0 0 3 3 3 3 3 3 3 3 2
0 0 0 0 0 0 0 0 0 0 3 3 3 3 3 3 3 2 
ZLAY3
        39         1(I1,17I2)                   -2                      # DATA SET 4
3 4 4 3 3 3 3 3 3 3 3 0 0 0 0 0 0 0 layer 3
3 4 4 4 3 3 3 4 4 4 3 3 0 0 0 0 0 0 
3 4 4 4 4 3 4 4 4 4 4 3 3 0 0 0 0 0 
3 4 4 4 4 4 4 4 4 4 4 4 3 3 0 0 0 0 
3 4 4 4 4 4 4 4 4 4 4 4 4 3 3 0 0 0 
3 4 4 4 4 4 4 4 4 4 4 4 4 4 4 4 0 0 
3 4 4 4 4 4 1 1 1 1 1 1 1 1 1 1 1 0 
3 3 4 4 4 4 1 3 3 3 4 4 4 4 4 4 1 1 
3 3 3 3 4 4 4 4 4 3 3 3 3 3 3 3 3 3 
3 3 3 3 3 4 4 4 4 4 4 4 3 3 3 3 3 3 
3 3 3 3 3 3 4 4 4 3 3 3 3 3 3 3 3 3 
0 0 0 0 3 3 4 4 4 4 3 3 3 3 3 4 3 3 
0 0 0 0 0 3 3 4 4 4 4 4 4 4 4 4 4 4 
0 0 0 0 0 0 3 3 4 4 4 4 4 4 4 4 4 4 
0 0 0 0 0 0 0 3 3 3 3 3 3 3 3 3 3 3 
0 0 0 0 0 0 0 0 3 3 3 3 3 3 3 3 3 3 
0 0 0 0 0 0 0 0 0 3 3 3 3 3 3 3 3 3
0 0 0 0 0 0 0 0 0 0 3 3 3 3 3 3 3 3 
RCHETM
        39         1(I1,17I2)                   -2                      # DATA SET 4
0 0 0 0 0 0 0 0 0 0 0 0 0 0 0 0 0 0 etm and rch
0 0 0 0 0 0 0 0 0 0 0 0 0 0 0 0 0 0 
0 0 0 0 0 0 0 0 0 0 0 0 0 0 0 0 0 0 
0 0 0 0 0 0 0 0 0 0 0 0 0 0 0 0 0 0 
0 0 0 0 0 0 0 0 0 0 0 0 0 0 0 0 0 0 
0 0 0 0 0 2 2 2 0 0 0 0 0 0 0 0 0 0 
0 0 0 0 0 2 2 2 0 0 0 0 0 0 0 0 0 0 
0 0 0 0 0 2 2 2 0 0 0 0 0 0 0 0 0 0 
0 0 0 0 0 2 2 2 0 0 0 1 1 1 0 0 0 0 
0 0 0 0 0 0 0 0 0 0 0 1 1 1 1 0 0 0 
0 0 0 0 0 0 0 0 0 0 0 1 1 1 1 0 0 0 
0 0 0 0 0 0 0 0 0 0 0 1 1 1 1 0 0 0 
0 0 0 0 0 0 0 0 0 0 0 1 1 1 1 0 0 0 
0 0 0 0 0 0 0 0 0 0 0 0 0 0 0 0 0 0 
0 0 0 0 0 0 0 0 0 0 0 0 0 0 0 0 0 0 
0 0 0 0 0 0 0 0 0 0 0 0 0 0 0 0 0 0 
0 0 0 0 0 0 0 0 0 0 0 0 0 0 0 0 0 0
0 0 0 0 0 0 0 0 0 0 0 0 0 0 0 0 0 0 


