# test1tr
# MODFLOW-2005 Example problem documented in: 
#   Harbaugh, A.W., 2005, MODFLOW-2005, the U.S. Geological Survey modular ground-water model -- the Ground-Water Flow Process: U.S. Geological Survey Techniques and Methods 6-A16.
#   Harbaugh, A.W., Banta, E.R., Hill, M.C. and McDonald, M.G., 2000, MODFLOW-2000, The U.S. Geological Survey Modular Ground-Water Model - User Guide to Modularization Concepts and the Ground-Water Flow Process: U.S Geological Survey Open-File Report 2000-92, 121 p., https://doi.org/10.3133/ofr200092
#   Prudic. D.E., Konikow, L.F., and Banta, E.R., 2004, A new streamflow-routing (SFR1) package to simulate stream-aquifer interaction with MODFLOW-2000: U.S Geological Survey Open-File Report 2004-1042, 104 p., https://doi.org/10.3133/ofr20041042
#
#-----------------------------------------------------------------------------------------------------------------------------------------------------
#
# NAME file for the test1tr test case
#
# This test case is the transient simulation of
# test simulation 1 documented in Appendix 2 of USGS
# Open-File Report 2004-1042.
#
LIST                  9 ./output/test1tr.lst
BAS6                 75 test1tr.ba6
LPF                   7 test1tr.lpf
DIS                   8 test1tr.dis
SIP                  13 test1tr.sip
OC                   14 test1tr.oc
SFR                  15 test1tr.sfr
WEL                  16 test1tr.wel
GHB                  17 test1tr.ghb
EVT                  18 test1tr.evt
RCH                  19 test1tr.rch
GAGE                 32 test1tr.gag
DATA                 58 ./output/test1tr.hds
DATA(binary)         59 ./output/test1tr.et
DATA                 81 ./output/test1tr.flw
DATA                 83 ./output/test1tr.sg1
DATA                 84 ./output/test1tr.sg2
DATA                 85 ./output/test1tr.sg3
DATA                 86 ./output/test1tr.sg4
DATA                 87 ./output/test1tr.sg5
DATA                 88 ./output/test1tr.sg6
DATA                 89 ./output/test1tr.sg7
DATA                 90 ./output/test1tr.sg8
DATA                 91 ./output/test1tr.dvsg9
