# tr2k_s3
# MODFLOW-2005 Example problem documented in: 
#   Harbaugh, A.W., 2005, MODFLOW-2005, the U.S. Geological Survey modular ground-water model -- the Ground-Water Flow Process: U.S. Geological Survey Techniques and Methods 6-A16.
#   Harbaugh, A.W., Banta, E.R., Hill, M.C. and McDonald, M.G., 2000, MODFLOW-2000, The U.S. Geological Survey Modular Ground-Water Model - User Guide to Modularization Concepts and the Ground-Water Flow Process: U.S Geological Survey Open-File Report 2000-92, 121 p., https://doi.org/10.3133/ofr200092
#   Höffmann, J., Leake, S.A., Galloway, D.L., and Wilson, A.M., 2003, MODFLOW-2000 Ground-Water Model--User Guide to the Subsidence and Aquifer-System Compaction (SUB) Package: U.S. Geological Survey Open-File Report 03-233, 44 p.
# 
# Input modified for MODFLOW-OWHM by including the BAS options:
#    NOFREE  BUDGETDB ./output/bcf2ss_VolumetricBudget.txt  CUMULATIVE_HEAD_CHANGE ./output/bcf2ss_CumHCHG.txt  PRINT_HEAD NPER ./output/bcf2ss_Head.txt
#
#-----------------------------------------------------------------------------------------------------------------------------------------------------
  3  10  10  31  4  0       # NLAY,NROW,NCOL,NPER,ITMUNI,LENUNI
0 0 0
CONSTANT   1000.            # DELR
CONSTANT   2000.            # DELC
CONSTANT   0.0              # TOP
CONSTANT  -100.0            # BOT layer  1
CONSTANT  -150.0            # BOT layer  2
CONSTANT  -250.0            # BOT layer  3
     1.0         1 1.0  SS  # Steady state solution
   365.3         6 1.3  TR  # PERLEN,NSTP,TSMULT,Ss/tr
   365.3         6 1.3  TR  # PERLEN,NSTP,TSMULT,Ss/tr
   365.3         6 1.3  TR  # PERLEN,NSTP,TSMULT,Ss/tr
   365.3         6 1.3  TR  # PERLEN,NSTP,TSMULT,Ss/tr
   365.3         6 1.3  TR  # PERLEN,NSTP,TSMULT,Ss/tr
   365.3         6 1.3  TR  # PERLEN,NSTP,TSMULT,Ss/tr
   365.3         6 1.3  TR  # PERLEN,NSTP,TSMULT,Ss/tr
   365.3         6 1.3  TR  # PERLEN,NSTP,TSMULT,Ss/tr
   365.3         6 1.3  TR  # PERLEN,NSTP,TSMULT,Ss/tr
   365.3         6 1.3  TR  # PERLEN,NSTP,TSMULT,Ss/tr
   365.3         6 1.3  TR  # PERLEN,NSTP,TSMULT,Ss/tr
   365.3         6 1.3  TR  # PERLEN,NSTP,TSMULT,Ss/tr
   365.3         6 1.3  TR  # PERLEN,NSTP,TSMULT,Ss/tr
   365.3         6 1.3  TR  # PERLEN,NSTP,TSMULT,Ss/tr
   365.3         6 1.3  TR  # PERLEN,NSTP,TSMULT,Ss/tr
   365.3         6 1.3  TR  # PERLEN,NSTP,TSMULT,Ss/tr
   365.3         6 1.3  TR  # PERLEN,NSTP,TSMULT,Ss/tr
   365.3         6 1.3  TR  # PERLEN,NSTP,TSMULT,Ss/tr
   365.3         6 1.3  TR  # PERLEN,NSTP,TSMULT,Ss/tr
   365.3         6 1.3  TR  # PERLEN,NSTP,TSMULT,Ss/tr
   365.3         6 1.3  TR  # PERLEN,NSTP,TSMULT,Ss/tr
   365.3         6 1.3  TR  # PERLEN,NSTP,TSMULT,Ss/tr
   365.3         6 1.3  TR  # PERLEN,NSTP,TSMULT,Ss/tr
   365.3         6 1.3  TR  # PERLEN,NSTP,TSMULT,Ss/tr
   365.3         6 1.3  TR  # PERLEN,NSTP,TSMULT,Ss/tr
   365.3         6 1.3  TR  # PERLEN,NSTP,TSMULT,Ss/tr
   365.3         6 1.3  TR  # PERLEN,NSTP,TSMULT,Ss/tr
   365.3         6 1.3  TR  # PERLEN,NSTP,TSMULT,Ss/tr
   365.3         6 1.3  TR  # PERLEN,NSTP,TSMULT,Ss/tr
   365.3         6 1.3  TR  # PERLEN,NSTP,TSMULT,Ss/tr
