# twrihfb
# MODFLOW-2005 Example problem documented in: 
#   Harbaugh, A.W., 2005, MODFLOW-2005, the U.S. Geological Survey modular ground-water model -- the Ground-Water Flow Process: U.S. Geological Survey Techniques and Methods 6-A16.
#   Harbaugh, A.W., Banta, E.R., Hill, M.C. and McDonald, M.G., 2000, MODFLOW-2000, The U.S. Geological Survey Modular Ground-Water Model - User Guide to Modularization Concepts and the Ground-Water Flow Process: U.S Geological Survey Open-File Report 2000-92, 121 p., https://doi.org/10.3133/ofr200092
#   Hsieh, P.A., and Freckleton, J.R., 1993, Documentation of a computer program to simulate horizontal-flow barriers using the U.S. Geological Survey modular three- dimensional finite-difference ground-water flow model: U.S. Geological Survey Open-File Report 92-477, 32 p.
# 
#      -Comments are preceded by a # sign
#
#-----------------------------------------------------------------------------------------------------------------------------------------------------
    3   15   15    1    1    0      # NLAY,NROW,NCOL,NPER,ITMUNI,LENUNI
 1 1 0                              
CONSTANT   5.000000E+03             # DELR
CONSTANT   5.000000E+03             # DELC
CONSTANT   2.000000E+02             # TOP of system          
CONSTANT  -1.500000E+02             # Layer BOTM layer   1
CONSTANT  -2.000000E+02             # Confining bed BOTM layer   1
CONSTANT  -3.000000E+02             # Layer BOTM layer   2
CONSTANT  -3.500000E+02             # Confining bed BOTM layer   2
CONSTANT  -4.500000E+02             # Layer BOTM layer   3
 8.640E+04         1 1.000E+00  SS  # PERLEN,NSTP,TSMULT,Ss/tr
