# swi2ex4sww
# MODFLOW-NWT Example problem documented in: 
# Niswonger, R.G., Panday, Sorab, and Ibaraki, Motomu, 2011, MODFLOW-NWT, A Newton formulation for MODFLOW-2005: U.S. Geological Survey Techniques and Methods 6-A37, 44 p.
# 
#-----------------------------------------------------------------------------------------------------------------------------------------------------
#
# PCG for MODFLOW, generated by Flopy.
        50        30         1
  0.000010  0.000010  1.000000         0         0         3  1.000000
