# swi2ex4sww
# MODFLOW-NWT Example problem documented in: 
# Niswonger, R.G., Panday, Sorab, and Ibaraki, Motomu, 2011, MODFLOW-NWT, A Newton formulation for MODFLOW-2005: U.S. Geological Survey Techniques and Methods 6-A37, 44 p.
# 
#      -Comments are preceded by a # sign
#
#-----------------------------------------------------------------------------------------------------------------------------------------------------
#
# Salt Water Intrusion package file for MODFLOW-2005, generated by Flopy.
#--Dataset 1
         1         1         0        55         0         0
#--Dataset 2a
         1         0         3
#--Dataset 3a
0.005 0.005 0.1 0.1
#--Dataset 4
        29         1          (20G13.0)         -1 
            0        0.025
#--Dataset 5
        29         1          (61G13.0)         -1 
          -10          -10          -10          -10          -10          -10          -10          -10          -10          -10          -10          -10          -10          -10          -10          -10          -10          -10          -10          -10          -10          -10          -10          -10          -10          -10          -10          -10          -10          -10          -10          -10          -10          -10          -10          -10          -10          -10          -10          -10          -10          -10          -10          -10          -10          -10          -10          -10          -10          -10          -10          -10          -10          -10          -10          -10          -10          -10          -10          -10          -10
          -10          -10          -10          -10          -10          -10          -10          -10          -10          -10          -10          -10          -10          -10          -10          -10          -10          -10          -10          -10          -10          -10          -10          -10          -10          -10          -10          -10          -10          -10          -10          -10          -10          -10          -10          -10          -10          -10          -10          -10          -10          -10          -10          -10          -10          -10          -10          -10          -10          -10          -10          -10          -10          -10          -10          -10          -10          -10          -10          -10          -10
          -10          -10          -10          -10          -10          -10          -10          -10          -10          -10          -10          -10          -10          -10          -10          -10          -10          -10          -10          -10          -10          -10          -10          -10          -10          -10          -10          -10          -10          -10          -10          -10          -10          -10          -10          -10          -10          -10          -10          -10          -10          -10          -10          -10          -10          -10          -10          -10          -10          -10          -10          -10          -10          -10          -10          -10          -10          -10          -10          -10          -10
          -10          -10          -10          -10          -10          -10          -10          -10          -10          -10          -10          -10          -10          -10          -10          -10          -10          -10          -10          -10          -10          -10          -10          -10          -10          -10          -10          -10          -10          -10          -10          -10          -10          -10          -10          -10          -10          -10          -10          -10          -10          -10          -10          -10          -10          -10          -10          -10          -10          -10          -10          -10          -10          -10          -10          -10          -10          -10          -10          -10          -10
          -10          -10          -10          -10          -10          -10          -10          -10          -10          -10          -10          -10          -10          -10          -10          -10          -10          -10          -10          -10          -10          -10          -10          -10          -10          -10          -10          -10          -10          -10          -10          -10          -10          -10          -10          -10          -10          -10          -10          -10          -10          -10          -10          -10          -10          -10          -10          -10          -10          -10          -10          -10          -10          -10          -10          -10          -10          -10          -10          -10          -10
          -10          -10          -10          -10          -10          -10          -10          -10          -10          -10          -10          -10          -10          -10          -10          -10          -10          -10          -10          -10          -10          -10          -10          -10          -10          -10          -10          -10          -10          -10          -10          -10          -10          -10          -10          -10          -10          -10          -10          -10          -10          -10          -10          -10          -10          -10          -10          -10          -10          -10          -10          -10          -10          -10          -10          -10          -10          -10          -10          -10          -10
          -10          -10          -10          -10          -10          -10          -10          -10          -10          -10          -10          -10          -10          -10          -10          -10          -10          -10          -10          -10          -10          -10          -10          -10          -10          -10          -10          -10          -10          -10          -10          -10          -10          -10          -10          -10          -10          -10          -10          -10          -10          -10          -10          -10          -10          -10          -10          -10          -10          -10          -10          -10          -10          -10          -10          -10          -10          -10          -10          -10          -10
          -10          -10          -10          -10          -10          -10          -10          -10          -10          -10          -10          -10          -10          -10          -10          -10          -10          -10          -10          -10          -10          -10          -10          -10          -10          -10          -10          -10          -10          -10          -10          -10          -10          -10          -10          -10          -10          -10          -10          -10          -10          -10          -10          -10          -10          -10          -10          -10          -10          -10          -10          -10          -10          -10          -10          -10          -10          -10          -10          -10          -10
          -10          -10          -10          -10          -10          -10          -10          -10          -10          -10          -10          -10          -10          -10          -10          -10          -10          -10          -10          -10          -10          -10          -10          -10          -10          -10          -10          -10          -10          -10          -10          -10          -10          -10          -10          -10          -10          -10          -10          -10          -10          -10          -10          -10          -10          -10          -10          -10          -10          -10          -10          -10          -10          -10          -10          -10          -10          -10          -10          -10          -10
          -10          -10          -10          -10          -10          -10          -10          -10          -10          -10          -10          -10          -10          -10          -10          -10          -10          -10          -10          -10          -10          -10          -10          -10          -10          -10          -10          -10          -10          -10          -10          -10          -10          -10          -10          -10          -10          -10          -10          -10          -10          -10          -10          -10          -10          -10          -10          -10          -10          -10          -10          -10          -10          -10          -10          -10          -10          -10          -10          -10          -10
          -10          -10          -10          -10          -10          -10          -10          -10          -10          -10          -11          -11          -11          -11          -11          -11          -11          -11          -11          -11          -11          -11          -11          -11          -11          -11          -11          -11          -11          -11          -11          -11          -11          -11          -11          -11          -11          -11          -11          -11          -11          -11          -11          -11          -11          -11          -11          -11          -11          -11          -11          -10          -10          -10          -10          -10          -10          -10          -10          -10          -10
          -10          -10          -10          -10          -10          -10          -10          -10          -10          -10          -11          -11          -11          -11          -11          -11          -11          -11          -11          -11          -11          -11          -11          -11          -11          -11          -11          -11          -11          -11          -11          -11          -11          -11          -11          -11          -11          -11          -11          -11          -11          -11          -11          -11          -11          -11          -11          -11          -11          -11          -11          -10          -10          -10          -10          -10          -10          -10          -10          -10          -10
          -10          -10          -10          -10          -10          -10          -10          -10          -10          -10          -11          -11          -11          -11          -11          -11          -11          -11          -11          -11          -11          -11          -11          -11          -11          -11          -11          -11          -11          -11          -11          -11          -11          -11          -11          -11          -11          -11          -11          -11          -11          -11          -11          -11          -11          -11          -11          -11          -11          -11          -11          -10          -10          -10          -10          -10          -10          -10          -10          -10          -10
          -10          -10          -10          -10          -10          -10          -10          -10          -10          -10          -11          -11          -11          -11          -11          -11          -11          -11          -11          -11          -11          -11          -11          -11          -11          -11          -11          -11          -11          -11          -11          -11          -11          -11          -11          -11          -11          -11          -11          -11          -11          -11          -11          -11          -11          -11          -11          -11          -11          -11          -11          -10          -10          -10          -10          -10          -10          -10          -10          -10          -10
          -10          -10          -10          -10          -10          -10          -10          -10          -10          -10          -11          -11          -11          -11          -11          -11          -11          -11          -11          -11          -11          -11          -11          -11          -11          -11          -11          -11          -11          -11          -11          -11          -11          -11          -11          -11          -11          -11          -11          -11          -11          -11          -11          -11          -11          -11          -11          -11          -11          -11          -11          -10          -10          -10          -10          -10          -10          -10          -10          -10          -10
          -10          -10          -10          -10          -10          -10          -10          -10          -10          -10          -11          -11          -11          -11          -11          -11          -11          -11          -11          -11          -11          -11          -11          -11          -11          -11          -11          -11          -11          -11          -11          -11          -11          -11          -11          -11          -11          -11          -11          -11          -11          -11          -11          -11          -11          -11          -11          -11          -11          -11          -11          -10          -10          -10          -10          -10          -10          -10          -10          -10          -10
          -10          -10          -10          -10          -10          -10          -10          -10          -10          -10          -11          -11          -11          -11          -11          -11          -11          -11          -11          -11          -11          -11          -11          -11          -11          -11          -11          -11          -11          -11          -11          -11          -11          -11          -11          -11          -11          -11          -11          -11          -11          -11          -11          -11          -11          -11          -11          -11          -11          -11          -11          -10          -10          -10          -10          -10          -10          -10          -10          -10          -10
          -10          -10          -10          -10          -10          -10          -10          -10          -10          -10          -11          -11          -11          -11          -11          -11          -11          -11          -11          -11          -11          -11          -11          -11          -11          -11          -11          -11          -11          -11          -11          -11          -11          -11          -11          -11          -11          -11          -11          -11          -11          -11          -11          -11          -11          -11          -11          -11          -11          -11          -11          -10          -10          -10          -10          -10          -10          -10          -10          -10          -10
          -10          -10          -10          -10          -10          -10          -10          -10          -10          -10          -11          -11          -11          -11          -11          -11          -11          -11          -11          -11          -11          -11          -11          -11          -11          -11          -11          -11          -11          -11          -11          -11          -11          -11          -11          -11          -11          -11          -11          -11          -11          -11          -11          -11          -11          -11          -11          -11          -11          -11          -11          -10          -10          -10          -10          -10          -10          -10          -10          -10          -10
          -10          -10          -10          -10          -10          -10          -10          -10          -10          -10          -11          -11          -11          -11          -11          -11          -11          -11          -11          -11          -11          -11          -11          -11          -11          -11          -11          -11          -11          -11          -11          -11          -11          -11          -11          -11          -11          -11          -11          -11          -11          -11          -11          -11          -11          -11          -11          -11          -11          -11          -11          -10          -10          -10          -10          -10          -10          -10          -10          -10          -10
          -10          -10          -10          -10          -10          -10          -10          -10          -10          -10          -11          -11          -11          -11          -11          -11          -11          -11          -11          -11          -11          -11          -11          -11          -11          -11          -11          -11          -11          -11          -11          -11          -11          -11          -11          -11          -11          -11          -11          -11          -11          -11          -11          -11          -11          -11          -11          -11          -11          -11          -11          -10          -10          -10          -10          -10          -10          -10          -10          -10          -10
          -10          -10          -10          -10          -10          -10          -10          -10          -10          -10          -11          -11          -11          -11          -11          -11          -11          -11          -11          -11          -11          -11          -11          -11          -11          -11          -11          -11          -11          -11          -11          -11          -11          -11          -11          -11          -11          -11          -11          -11          -11          -11          -11          -11          -11          -11          -11          -11          -11          -11          -11          -10          -10          -10          -10          -10          -10          -10          -10          -10          -10
          -10          -10          -10          -10          -10          -10          -10          -10          -10          -10          -11          -11          -11          -11          -11          -11          -11          -11          -11          -11          -11          -11          -11          -11          -11          -11          -11          -11          -11          -11          -11          -11          -11          -11          -11          -11          -11          -11          -11          -11          -11          -11          -11          -11          -11          -11          -11          -11          -11          -11          -11          -10          -10          -10          -10          -10          -10          -10          -10          -10          -10
          -10          -10          -10          -10          -10          -10          -10          -10          -10          -10          -11          -11          -11          -11          -11          -11          -11          -11          -11          -11          -11          -11          -11          -11          -11          -11          -11          -11          -11          -11          -11          -11          -11          -11          -11          -11          -11          -11          -11          -11          -11          -11          -11          -11          -11          -11          -11          -11          -11          -11          -11          -10          -10          -10          -10          -10          -10          -10          -10          -10          -10
          -10          -10          -10          -10          -10          -10          -10          -10          -10          -10          -11          -11          -11          -11          -11          -11          -11          -11          -11          -11          -11          -11          -11          -11          -11          -11          -11          -11          -11          -11          -11          -11          -11          -11          -11          -11          -11          -11          -11          -11          -11          -11          -11          -11          -11          -11          -11          -11          -11          -11          -11          -10          -10          -10          -10          -10          -10          -10          -10          -10          -10
          -10          -10          -10          -10          -10          -10          -10          -10          -10          -10          -11          -11          -11          -11          -11          -11          -11          -11          -11          -11          -11          -11          -11          -11          -11          -11          -11          -11          -11          -11          -11          -11          -11          -11          -11          -11          -11          -11          -11          -11          -11          -11          -11          -11          -11          -11          -11          -11          -11          -11          -11          -10          -10          -10          -10          -10          -10          -10          -10          -10          -10
          -10          -10          -10          -10          -10          -10          -10          -10          -10          -10          -11          -11          -11          -11          -11          -11          -11          -11          -11          -11          -11          -11          -11          -11          -11          -11          -11          -11          -11          -11          -11          -11          -11          -11          -11          -11          -11          -11          -11          -11          -11          -11          -11          -11          -11          -11          -11          -11          -11          -11          -11          -10          -10          -10          -10          -10          -10          -10          -10          -10          -10
          -10          -10          -10          -10          -10          -10          -10          -10          -10          -10          -11          -11          -11          -11          -11          -11          -11          -11          -11          -11          -11          -11          -11          -11          -11          -11          -11          -11          -11          -11          -11          -11          -11          -11          -11          -11          -11          -11          -11          -11          -11          -11          -11          -11          -11          -11          -11          -11          -11          -11          -11          -10          -10          -10          -10          -10          -10          -10          -10          -10          -10
          -10          -10          -10          -10          -10          -10          -10          -10          -10          -10          -11          -11          -11          -11          -11          -11          -11          -11          -11          -11          -11          -11          -11          -11          -11          -11          -11          -11          -11          -11          -11          -11          -11          -11          -11          -11          -11          -11          -11          -11          -11          -11          -11          -11          -11          -11          -11          -11          -11          -11          -11          -10          -10          -10          -10          -10          -10          -10          -10          -10          -10
          -10          -10          -10          -10          -10          -10          -10          -10          -10          -10          -11          -11          -11          -11          -11          -11          -11          -11          -11          -11          -11          -11          -11          -11          -11          -11          -11          -11          -11          -11          -11          -11          -11          -11          -11          -11          -11          -11          -11          -11          -11          -11          -11          -11          -11          -11          -11          -11          -11          -11          -11          -10          -10          -10          -10          -10          -10          -10          -10          -10          -10
          -10          -10          -10          -10          -10          -10          -10          -10          -10          -10          -11          -11          -11          -11          -11          -11          -11          -11          -11          -11          -11          -11          -11          -11          -11          -11          -11          -11          -11          -11          -11          -11          -11          -11          -11          -11          -11          -11          -11          -11          -11          -11          -11          -11          -11          -11          -11          -11          -11          -11          -11          -10          -10          -10          -10          -10          -10          -10          -10          -10          -10
          -10          -10          -10          -10          -10          -10          -10          -10          -10          -10          -11          -11          -11          -11          -11          -11          -11          -11          -11          -11          -11          -11          -11          -11          -11          -11          -11          -11          -11          -11          -11          -11          -11          -11          -11          -11          -11          -11          -11          -11          -11          -11          -11          -11          -11          -11          -11          -11          -11          -11          -11          -10          -10          -10          -10          -10          -10          -10          -10          -10          -10
          -10          -10          -10          -10          -10          -10          -10          -10          -10          -10          -11          -11          -11          -11          -11          -11          -11          -11          -11          -11          -11          -11          -11          -11          -11          -11          -11          -11          -11          -11          -11          -11          -11          -11          -11          -11          -11          -11          -11          -11          -11          -11          -11          -11          -11          -11          -11          -11          -11          -11          -11          -10          -10          -10          -10          -10          -10          -10          -10          -10          -10
          -10          -10          -10          -10          -10          -10          -10          -10          -10          -10          -11          -11          -11          -11          -11          -11          -11          -11          -11          -11          -11          -11          -11          -11          -11          -11          -11          -11          -11          -11          -11          -11          -11          -11          -11          -11          -11          -11          -11          -11          -11          -11          -11          -11          -11          -11          -11          -11          -11          -11          -11          -10          -10          -10          -10          -10          -10          -10          -10          -10          -10
          -10          -10          -10          -10          -10          -10          -10          -10          -10          -10          -11          -11          -11          -11          -11          -11          -11          -11          -11          -11          -11          -11          -11          -11          -11          -11          -11          -11          -11          -11          -11          -11          -11          -11          -11          -11          -11          -11          -11          -11          -11          -11          -11          -11          -11          -11          -11          -11          -11          -11          -11          -10          -10          -10          -10          -10          -10          -10          -10          -10          -10
          -10          -10          -10          -10          -10          -10          -10          -10          -10          -10          -11          -11          -11          -11          -11          -11          -11          -11          -11          -11          -11          -11          -11          -11          -11          -11          -11          -11          -11          -11          -11          -11          -11          -11          -11          -11          -11          -11          -11          -11          -11          -11          -11          -11          -11          -11          -11          -11          -11          -11          -11          -10          -10          -10          -10          -10          -10          -10          -10          -10          -10