# swi2ex4sww
# MODFLOW-NWT Example problem documented in: 
# Niswonger, R.G., Panday, Sorab, and Ibaraki, Motomu, 2011, MODFLOW-NWT, A Newton formulation for MODFLOW-2005: U.S. Geological Survey Techniques and Methods 6-A37, 44 p.
# 
#      -Comments are preceded by a # sign
#
#-----------------------------------------------------------------------------------------------------------------------------------------------------
#
# Discretization file for MODFLOW, generated by Flopy.
         2        61        61         3         DAYS   METERS    # NLAY,NROW,NCOL,NPER,ITMUNI,LENUNI
  0  0
        0  5.000e+01           (5G13.0)         -1                # DELR(NCOL)
        0  5.000e+01           (5G13.0)         -1                # DELC(NROW)
        11         1           (5G13.0)         -1                # TOP OF SYSTEM
          -10          -10          -10          -10          -10
          -10          -10          -10          -10          -10
          -10          -10          -10          -10          -10
          -10          -10          -10          -10          -10
          -10          -10          -10          -10          -10
          -10          -10          -10          -10          -10
          -10          -10          -10          -10          -10
          -10          -10          -10          -10          -10
          -10          -10          -10          -10          -10
          -10          -10          -10          -10          -10
          -10          -10          -10          -10          -10
          -10          -10          -10          -10          -10
          -10
          -10          -10          -10          -10          -10
          -10          -10          -10          -10          -10
          -10          -10          -10          -10          -10
          -10          -10          -10          -10          -10
          -10          -10          -10          -10          -10
          -10          -10          -10          -10          -10
          -10          -10          -10          -10          -10
          -10          -10          -10          -10          -10
          -10          -10          -10          -10          -10
          -10          -10          -10          -10          -10
          -10          -10          -10          -10          -10
          -10          -10          -10          -10          -10
          -10
          -10          -10          -10          -10          -10
          -10          -10          -10          -10          -10
          -10          -10          -10          -10          -10
          -10          -10          -10          -10          -10
          -10          -10          -10          -10          -10
          -10          -10          -10          -10          -10
          -10          -10          -10          -10          -10
          -10          -10          -10          -10          -10
          -10          -10          -10          -10          -10
          -10          -10          -10          -10          -10
          -10          -10          -10          -10          -10
          -10          -10          -10          -10          -10
          -10
          -10          -10          -10          -10          -10
          -10          -10          -10          -10          -10
          -10          -10          -10          -10          -10
          -10          -10          -10          -10          -10
          -10          -10          -10          -10          -10
          -10          -10          -10          -10          -10
          -10          -10          -10          -10          -10
          -10          -10          -10          -10          -10
          -10          -10          -10          -10          -10
          -10          -10          -10          -10          -10
          -10          -10          -10          -10          -10
          -10          -10          -10          -10          -10
          -10
          -10          -10          -10          -10          -10
          -10          -10          -10          -10          -10
          -10          -10          -10          -10          -10
          -10          -10          -10          -10          -10
          -10          -10          -10          -10          -10
          -10          -10          -10          -10          -10
          -10          -10          -10          -10          -10
          -10          -10          -10          -10          -10
          -10          -10          -10          -10          -10
          -10          -10          -10          -10          -10
          -10          -10          -10          -10          -10
          -10          -10          -10          -10          -10
          -10
          -10          -10          -10          -10          -10
          -10          -10          -10          -10          -10
          -10          -10          -10          -10          -10
          -10          -10          -10          -10          -10
          -10          -10          -10          -10          -10
          -10          -10          -10          -10          -10
          -10          -10          -10          -10          -10
          -10          -10          -10          -10          -10
          -10          -10          -10          -10          -10
          -10          -10          -10          -10          -10
          -10          -10          -10          -10          -10
          -10          -10          -10          -10          -10
          -10
          -10          -10          -10          -10          -10
          -10          -10          -10          -10          -10
          -10          -10          -10          -10          -10
          -10          -10          -10          -10          -10
          -10          -10          -10          -10          -10
          -10          -10          -10          -10          -10
          -10          -10          -10          -10          -10
          -10          -10          -10          -10          -10
          -10          -10          -10          -10          -10
          -10          -10          -10          -10          -10
          -10          -10          -10          -10          -10
          -10          -10          -10          -10          -10
          -10
          -10          -10          -10          -10          -10
          -10          -10          -10          -10          -10
          -10          -10          -10          -10          -10
          -10          -10          -10          -10          -10
          -10          -10          -10          -10          -10
          -10          -10          -10          -10          -10
          -10          -10          -10          -10          -10
          -10          -10          -10          -10          -10
          -10          -10          -10          -10          -10
          -10          -10          -10          -10          -10
          -10          -10          -10          -10          -10
          -10          -10          -10          -10          -10
          -10
          -10          -10          -10          -10          -10
          -10          -10          -10          -10          -10
          -10          -10          -10          -10          -10
          -10          -10          -10          -10          -10
          -10          -10          -10          -10          -10
          -10          -10          -10          -10          -10
          -10          -10          -10          -10          -10
          -10          -10          -10          -10          -10
          -10          -10          -10          -10          -10
          -10          -10          -10          -10          -10
          -10          -10          -10          -10          -10
          -10          -10          -10          -10          -10
          -10
          -10          -10          -10          -10          -10
          -10          -10          -10          -10          -10
          -10          -10          -10          -10          -10
          -10          -10          -10          -10          -10
          -10          -10          -10          -10          -10
          -10          -10          -10          -10          -10
          -10          -10          -10          -10          -10
          -10          -10          -10          -10          -10
          -10          -10          -10          -10          -10
          -10          -10          -10          -10          -10
          -10          -10          -10          -10          -10
          -10          -10          -10          -10          -10
          -10
          -10          -10          -10          -10          -10
          -10          -10          -10          -10          -10
          -10          -10          -10          -10          -10
          -10          -10          -10          -10          -10
          -10          -10          -10          -10          -10
          -10          -10          -10          -10          -10
          -10          -10          -10          -10          -10
          -10          -10          -10          -10          -10
          -10          -10          -10          -10          -10
          -10          -10          -10          -10          -10
          -10          -10          -10          -10          -10
          -10          -10          -10          -10          -10
          -10
          -10          -10          -10          -10          -10
          -10          -10          -10          -10          -10
          -10          -10          -10          -10          -10
          -10          -10          -10          -10          -10
          -10          -10          -10          -10          -10
          -10          -10          -10          -10          -10
          -10          -10          -10          -10          -10
          -10          -10          -10          -10          -10
          -10          -10          -10          -10          -10
          -10          -10          -10          -10          -10
          -10          -10          -10          -10          -10
          -10          -10          -10          -10          -10
          -10
          -10          -10          -10          -10          -10
          -10          -10          -10          -10          -10
          -10          -10          -10          -10          -10
          -10          -10          -10          -10          -10
          -10          -10          -10          -10          -10
          -10          -10          -10          -10          -10
          -10          -10          -10          -10          -10
          -10          -10          -10          -10          -10
          -10          -10          -10          -10          -10
          -10          -10          -10          -10          -10
          -10          -10          -10          -10          -10
          -10          -10          -10          -10          -10
          -10
          -10          -10          -10          -10          -10
          -10          -10          -10          -10          -10
          -10          -10          -10          -10          -10
          -10          -10          -10          -10          -10
          -10          -10          -10          -10          -10
          -10          -10          -10          -10          -10
          -10          -10          -10          -10          -10
          -10          -10          -10          -10          -10
          -10          -10          -10          -10          -10
          -10          -10          -10          -10          -10
          -10          -10          -10          -10          -10
          -10          -10          -10          -10          -10
          -10
          -10          -10          -10          -10          -10
          -10          -10          -10          -10          -10
          -10          -10          -10          -10          -10
          -10          -10          -10          -10          -10
          -10          -10          -10          -10          -10
          -10          -10          -10          -10          -10
          -10          -10          -10          -10          -10
          -10          -10          -10          -10          -10
          -10          -10          -10          -10          -10
          -10          -10          -10          -10          -10
          -10          -10          -10          -10          -10
          -10          -10          -10          -10          -10
          -10
          -10          -10          -10          -10          -10
          -10          -10          -10          -10          -10
          -10          -10          -10          -10          -10
          -10          -10          -10          -10          -10
          -10          -10          -10          -10          -10
          -10          -10          -10          -10          -10
          -10          -10          -10          -10          -10
          -10          -10          -10          -10          -10
          -10          -10          -10          -10          -10
          -10          -10          -10          -10          -10
          -10          -10          -10          -10          -10
          -10          -10          -10          -10          -10
          -10
          -10          -10          -10          -10          -10
          -10          -10          -10          -10          -10
          -10          -10          -10          -10          -10
          -10          -10          -10          -10          -10
          -10          -10          -10          -10          -10
          -10          -10          -10          -10          -10
          -10          -10          -10          -10          -10
          -10          -10          -10          -10          -10
          -10          -10          -10          -10          -10
          -10          -10          -10          -10          -10
          -10          -10          -10          -10          -10
          -10          -10          -10          -10          -10
          -10
          -10          -10          -10          -10          -10
          -10          -10          -10          -10          -10
          -10          -10          -10          -10          -10
          -10          -10          -10          -10          -10
          -10          -10          -10          -10          -10
          -10          -10          -10          -10          -10
          -10          -10          -10          -10          -10
          -10          -10          -10          -10          -10
          -10          -10          -10          -10          -10
          -10          -10          -10          -10          -10
          -10          -10          -10          -10          -10
          -10          -10          -10          -10          -10
          -10
          -10          -10          -10          -10          -10
          -10          -10          -10          -10          -10
          -10          -10          -10          -10          -10
          -10          -10          -10          -10          -10
          -10          -10          -10          -10          -10
          -10          -10          -10          -10          -10
          -10          -10          -10          -10          -10
          -10          -10          -10          -10          -10
          -10          -10          -10          -10          -10
          -10          -10          -10          -10          -10
          -10          -10          -10          -10          -10
          -10          -10          -10          -10          -10
          -10
          -10          -10          -10          -10          -10
          -10          -10          -10          -10          -10
          -10          -10          -10          -10          -10
          -10          -10          -10          -10          -10
          -10          -10          -10          -10          -10
          -10          -10          -10          -10          -10
          -10          -10          -10          -10          -10
          -10          -10          -10          -10          -10
          -10          -10          -10          -10          -10
          -10          -10          -10          -10          -10
          -10          -10          -10          -10          -10
          -10          -10          -10          -10          -10
          -10
          -10          -10          -10          -10          -10
          -10          -10          -10          -10          -10
          -10          -10          -10          -10          -10
          -10          -10          -10          -10          -10
          -10          -10          -10          -10          -10
          -10          -10          -10          -10          -10
          -10          -10          -10          -10          -10
          -10          -10          -10          -10          -10
          -10          -10          -10          -10          -10
          -10          -10          -10          -10          -10
          -10          -10          -10          -10          -10
          -10          -10          -10          -10          -10
          -10
          -10          -10          -10          -10          -10
          -10          -10          -10          -10          -10
          -10          -10          -10          -10          -10
          -10          -10          -10          -10          -10
          -10          -10          -10          -10          -10
          -10          -10          -10          -10          -10
          -10          -10          -10          -10          -10
          -10          -10          -10          -10          -10
          -10          -10          -10          -10          -10
          -10          -10          -10          -10          -10
          -10          -10          -10          -10          -10
          -10          -10          -10          -10          -10
          -10
          -10          -10          -10          -10          -10
          -10          -10          -10          -10          -10
          -10          -10          -10          -10          -10
          -10          -10          -10          -10          -10
          -10          -10          -10          -10          -10
          -10          -10          -10          -10          -10
          -10          -10          -10          -10          -10
          -10          -10          -10          -10          -10
          -10          -10          -10          -10          -10
          -10          -10          -10          -10          -10
          -10          -10          -10          -10          -10
          -10          -10          -10          -10          -10
          -10
          -10          -10          -10          -10          -10
          -10          -10          -10          -10          -10
          -10          -10          -10          -10          -10
          -10          -10          -10          -10          -10
          -10          -10          -10          -10          -10
          -10          -10          -10          -10          -10
          -10          -10          -10          -10          -10
          -10          -10          -10          -10          -10
          -10          -10          -10          -10          -10
          -10          -10          -10          -10          -10
          -10          -10          -10          -10          -10
          -10          -10          -10          -10          -10
          -10
          -10          -10          -10          -10          -10
          -10          -10          -10          -10          -10
          -10          -10          -10          -10          -10
          -10          -10          -10          -10          -10
          -10          -10          -10          -10          -10
          -10          -10          -10          -10          -10
          -10          -10          -10          -10          -10
          -10          -10          -10          -10          -10
          -10          -10          -10          -10          -10
          -10          -10          -10          -10          -10
          -10          -10          -10          -10          -10
          -10          -10          -10          -10          -10
          -10
          -10          -10          -10          -10          -10
          -10          -10          -10          -10          -10
          -10          -10          -10          -10          -10
          -10          -10          -10          -10          -10
          -10          -10          -10          -10          -10
          -10          -10          -10          -10          -10
          -10          -10          -10          -10          -10
          -10          -10          -10          -10          -10
          -10          -10          -10          -10          -10
          -10          -10          -10          -10          -10
          -10          -10          -10          -10          -10
          -10          -10          -10          -10          -10
          -10
          -10          -10          -10          -10          -10
          -10          -10          -10          -10          -10
          -10          -10          -10          -10          -10
          -10          -10          -10          -10          -10
          -10          -10          -10          -10          -10
          -10          -10          -10          -10          -10
          -10          -10          -10          -10          -10
          -10          -10          -10          -10          -10
          -10          -10          -10          -10          -10
          -10          -10          -10          -10          -10
          -10          -10          -10          -10          -10
          -10          -10          -10          -10          -10
          -10
          -10          -10          -10          -10          -10
          -10          -10          -10          -10          -10
          -10          -10          -10          -10          -10
          -10          -10          -10          -10          -10
          -10          -10          -10          -10          -10
          -10          -10          -10          -10          -10
          -10          -10          -10          -10          -10
          -10          -10          -10          -10          -10
          -10          -10          -10          -10          -10
          -10          -10          -10          -10          -10
          -10          -10          -10          -10          -10
          -10          -10          -10          -10          -10
          -10
          -10          -10          -10          -10          -10
          -10          -10          -10          -10          -10
          -10          -10          -10          -10          -10
          -10          -10          -10          -10          -10
          -10          -10          -10          -10          -10
          -10          -10          -10          -10          -10
          -10          -10          -10          -10          -10
          -10          -10          -10          -10          -10
          -10          -10          -10          -10          -10
          -10          -10          -10          -10          -10
          -10          -10          -10          -10          -10
          -10          -10          -10          -10          -10
          -10
          -10          -10          -10          -10          -10
          -10          -10          -10          -10          -10
          -10          -10          -10          -10          -10
          -10          -10          -10          -10          -10
          -10          -10          -10          -10          -10
          -10          -10          -10          -10          -10
          -10          -10          -10          -10          -10
          -10          -10          -10          -10          -10
          -10          -10          -10          -10          -10
          -10          -10          -10          -10          -10
          -10          -10          -10          -10          -10
          -10          -10          -10          -10          -10
          -10
          -10          -10          -10          -10          -10
          -10          -10          -10          -10          -10
          -10          -10          -10          -10          -10
          -10          -10          -10          -10          -10
          -10          -10          -10          -10          -10
          -10          -10          -10          -10          -10
          -10          -10          -10          -10          -10
          -10          -10          -10          -10          -10
          -10          -10          -10          -10          -10
          -10          -10          -10          -10          -10
          -10          -10          -10          -10          -10
          -10          -10          -10          -10          -10
          -10
          -10          -10          -10          -10          -10
          -10          -10          -10          -10          -10
          -10          -10          -10          -10          -10
          -10          -10          -10          -10          -10
          -10          -10          -10          -10          -10
          -10          -10          -10          -10          -10
          -10          -10          -10          -10          -10
          -10          -10          -10          -10          -10
          -10          -10          -10          -10          -10
          -10          -10          -10          -10          -10
          -10          -10          -10          -10          -10
          -10          -10          -10          -10          -10
          -10
          -10          -10          -10          -10          -10
          -10          -10          -10          -10          -10
          -10          -10          -10          -10          -10
          -10          -10          -10          -10          -10
          -10          -10          -10          -10          -10
          -10          -10          -10          -10          -10
          -10          -10          -10          -10          -10
          -10          -10          -10          -10          -10
          -10          -10          -10          -10          -10
          -10          -10          -10          -10          -10
          -10          -10          -10          -10          -10
          -10          -10          -10          -10          -10
          -10
          -10          -10          -10          -10          -10
          -10          -10          -10          -10          -10
          -10          -10          -10          -10          -10
          -10          -10          -10          -10          -10
          -10          -10          -10          -10          -10
          -10          -10          -10          -10          -10
          -10          -10          -10          -10          -10
          -10          -10          -10          -10          -10
          -10          -10          -10          -10          -10
          -10          -10          -10          -10          -10
          -10          -10          -10          -10          -10
          -10          -10          -10          -10          -10
          -10
          -10          -10          -10          -10          -10
          -10          -10          -10          -10          -10
          -10          -10          -10          -10          -10
          -10          -10          -10          -10          -10
          -10          -10          -10          -10          -10
          -10          -10          -10          -10          -10
          -10          -10          -10          -10          -10
          -10          -10          -10          -10          -10
          -10          -10          -10          -10          -10
          -10          -10          -10          -10          -10
          -10          -10          -10          -10          -10
          -10          -10          -10          -10          -10
          -10
          -10          -10          -10          -10          -10
          -10          -10          -10          -10          -10
          -10          -10          -10          -10          -10
          -10          -10          -10          -10          -10
          -10          -10          -10          -10          -10
          -10          -10          -10          -10          -10
          -10          -10          -10          -10          -10
          -10          -10          -10          -10          -10
          -10          -10          -10          -10          -10
          -10          -10          -10          -10          -10
          -10          -10          -10          -10          -10
          -10          -10          -10          -10          -10
          -10
          -10          -10          -10          -10          -10
          -10          -10          -10          -10          -10