# SWRSample02
# MODFLOW-SWR Example problem documented in: 
#    Hughes, J.D., Langevin, C.D., Chartier, K.L., and White, J.T., 2012, Documentation of the Surface-Water Routing (SWR1) Process for modeling surface-water flow with the U.S. Geological Survey Modular Ground-Water Model: U.S. Geological Survey Techniques and Methods 6-A40, 113 p.
# 
#      -Comments are preceded by a # sign
#
#-----------------------------------------------------------------------------------------------------------------------------------------------------
#
# MODFLOW2000 Discretization File
 1  11  11  1  1  2
 0
         0   500.000(10E12.4)                    0      # DELTA-X or C  --Fixed formatted read read equivalent to "CONSTANT 500"
         0   500.000(10E12.4)                    0      # DELTA-Y or R
        29     1.000(11e6.2)                    -1      # TOP of Model
  1.05  1.05  1.05  1.05  1.05  1.05  1.05  1.05  1.05  1.05  1.05
  0.95  0.95  0.95  0.95  0.95  0.95  0.95  0.95  0.95  0.95  0.95
  0.85  0.85  0.85  0.85  0.85  0.85  0.85  0.85  0.85  0.85  0.85
  0.75  0.75  0.75  0.75  0.75  0.75  0.75  0.75  0.75  0.75  0.75
  0.65  0.65  0.65  0.65  0.65  0.65  0.65  0.65  0.65  0.65  0.65
  0.55  0.55  0.55  0.55  0.55  0.55  0.55  0.55  0.55  0.55  0.55
  0.45  0.45  0.45  0.45  0.45  0.45  0.45  0.45  0.45  0.45  0.45
  0.35  0.35  0.35  0.35  0.35  0.35  0.35  0.35  0.35  0.35  0.35
  0.25  0.25  0.25  0.25  0.25  0.25  0.25  0.25  0.25  0.25  0.25
  0.15  0.15  0.15  0.15  0.15  0.15  0.15  0.15  0.15  0.15  0.15
  0.05  0.05  0.05  0.05  0.05  0.05  0.05  0.05  0.05  0.05  0.05
         0    -5.000(10e12.4)                   -1     # BOTTOM of Layer   1
  604800.0 5040  1.000000  TR
