# SWRSample01
# MODFLOW-SWR Example problem documented in: 
#    Hughes, J.D., Langevin, C.D., Chartier, K.L., and White, J.T., 2012, Documentation of the Surface-Water Routing (SWR1) Process for modeling surface-water flow with the U.S. Geological Survey Modular Ground-Water Model: U.S. Geological Survey Techniques and Methods 6-A40, 113 p.
# 
#      -Comments are preceded by a # sign
#
#-----------------------------------------------------------------------------------------------------------------------------------------------------
#
# MODFLOW2000 Discretization File
 1  1  1  21  1  2
 0
         0    10.000(10E12.4)                    0     # DELTA-X or C
         0    10.000(10E12.4)                    0     # DELTA-Y or R
         0     5.000(10e12.4)                   -1     # TOP of Model
         0    -5.000(10e12.4)                   -1     # BOTTOM of Layer   1
  6.00000000E+2  1  1.000000  TR
  6.00000000E+2  1  1.000000  TR
  6.00000000E+2  1  1.000000  TR
  6.00000000E+2  1  1.000000  TR
  6.00000000E+2  1  1.000000  TR
  6.00000000E+2  1  1.000000  TR
  6.00000000E+2  1  1.000000  TR
  6.00000000E+2  1  1.000000  TR
  6.00000000E+2  1  1.000000  TR
  6.00000000E+2  1  1.000000  TR
  6.00000000E+2  1  1.000000  TR
  6.00000000E+2  1  1.000000  TR
  6.00000000E+2  1  1.000000  TR
  6.00000000E+2  1  1.000000  TR
  6.00000000E+2  1  1.000000  TR
  6.00000000E+2  1  1.000000  TR
  6.00000000E+2  1  1.000000  TR
  6.00000000E+2  1  1.000000  TR
  6.00000000E+2  1  1.000000  TR
  6.00000000E+2  1  1.000000  TR
  6.00000000E+2  1  1.000000  TR
