# swi2ex4_2d_sww
# MODFLOW-SWI Example problem documented in: 
#   Bakker, M., Schaars, F., Hughes, J.D., Langevin, C.D., Dausman, A.M., 2013, Documentation of the seawater intrusion (SWI2) package for MODFLOW: U.S. Geological Survey Techniques and Methods 6-A46, 47 p.
# 
#      -Comments are preceded by a # sign
#
#-----------------------------------------------------------------------------------------------------------------------------------------------------
# DIS
         2        61        61         3         4         2
  0  0
CONSTANT    5.000000E+01                           #delr                          
CONSTANT    5.000000E+01                           #delc                          
CONSTANT   -1.000000E+01                           #model_top                     
CONSTANT   -3.000000E+01                           #botm Layer 1                  
CONSTANT   -5.000000E+01                           #botm Layer 2                  
  73000.000000          1000  1.000000  SS 
   4380.000000           120  1.000000  SS 
   6570.000000           180  1.000000  SS 
