# swi2ex5
# MODFLOW-SWI Example problem documented in: 
#   Bakker, M., Schaars, F., Hughes, J.D., Langevin, C.D., Dausman, A.M., 2013, Documentation of the seawater intrusion (SWI2) package for MODFLOW: U.S. Geological Survey Techniques and Methods 6-A46, 47 p.
# 
#      -Comments are preceded by a # sign
#
#-----------------------------------------------------------------------------------------------------------------------------------------------------
# DIS
         6         1       113         2         4         2
  0  0  0  0  0  0
        0  2.500e+01           (5G13.0)         -1               # DELR(NCOL)
        0  1.000e+00           (5G13.0)         -1               # DELC(NROW)
        11         1           (5G13.0)         -1               # TOP OF SYSTEM
            0            0            0            0            0
            0            0            0            0            0
            0            0            0            0            0
            0            0            0            0            0
            0            0            0            0            0
            0            0            0            0            0
            0            0            0            0            0
            0            0            0            0            0
            0            0            0            0            0
            0            0            0            0            0
            0            0            0            0            0
            0            0            0            0            0
            0            0            0            0            0
            0            0            0            0            0
            0            0            0            0            0
            0            0            0            0            0
            0            0            0            0            0
            0            0            0            0            0
            0            0            0            0            0
            0            0            0            0            0
            0            0            0            0            0
            0            0            0            0            0
            0            0            0
        11         1           (5G13.0)         -1               # BOTTOM OF LAYER 1
          -20          -20          -20          -20          -20
          -20          -20          -20          -20          -20
          -20          -20          -20          -20          -20
          -20          -20          -20          -20          -20
          -20          -20          -20          -20          -20
          -20          -20          -20          -20          -20
          -20          -20          -20          -20          -20
          -20          -20          -20          -20          -20
          -20          -20          -20          -20          -20
          -20          -20          -20          -20          -20
          -20          -20          -20          -20          -20
          -20          -20          -20          -20          -20
          -20          -20          -20          -20          -20
          -20          -20          -20          -20          -20
          -20          -20          -20          -20          -20
          -20          -20          -20          -20          -20
          -20          -20          -20          -20          -20
          -20          -20          -20          -20          -20
          -20          -20          -20          -20          -20
          -20          -20          -20          -20          -20
          -20          -20          -20          -20          -20
          -20          -20          -20          -20          -20
          -20          -20          -20
        11         1           (5G13.0)         -1               # BOTTOM OF LAYER 2
          -40          -40          -40          -40          -40
          -40          -40          -40          -40          -40
          -40          -40          -40          -40          -40
          -40          -40          -40          -40          -40
          -40          -40          -40          -40          -40
          -40          -40          -40          -40          -40
          -40          -40          -40          -40          -40
          -40          -40          -40          -40          -40
          -40          -40          -40          -40          -40
          -40          -40          -40          -40          -40
          -40          -40          -40          -40          -40
          -40          -40          -40          -40          -40
          -40          -40          -40          -40          -40
          -40          -40          -40          -40          -40
          -40          -40          -40          -40          -40
          -40          -40          -40          -40          -40
          -40          -40          -40          -40          -40
          -40          -40          -40          -40          -40
          -40          -40          -40          -40          -40
          -40          -40          -40          -40          -40
          -40          -40          -40          -40          -40
          -40          -40          -40          -40          -40
          -40          -40          -40
        11         1           (5G13.0)         -1               # BOTTOM OF LAYER 3
          -60          -60          -60          -60          -60
          -60          -60          -60          -60          -60
          -60          -60          -60          -60          -60
          -60          -60          -60          -60          -60
          -60          -60          -60          -60          -60
          -60          -60          -60          -60          -60
          -60          -60          -60          -60          -60
          -60          -60          -60          -60          -60
          -60          -60          -60          -60          -60
          -60          -60          -60          -60          -60
          -60          -60          -60          -60          -60
          -60          -60          -60          -60          -60
          -60          -60          -60          -60          -60
          -60          -60          -60          -60          -60
          -60          -60          -60          -60          -60
          -60          -60          -60          -60          -60
          -60          -60          -60          -60          -60
          -60          -60          -60          -60          -60
          -60          -60          -60          -60          -60
          -60          -60          -60          -60          -60
          -60          -60          -60          -60          -60
          -60          -60          -60          -60          -60
          -60          -60          -60
        11         1           (5G13.0)         -1               # BOTTOM OF LAYER 4
          -80          -80          -80          -80          -80
          -80          -80          -80          -80          -80
          -80          -80          -80          -80          -80
          -80          -80          -80          -80          -80
          -80          -80          -80          -80          -80
          -80          -80          -80          -80          -80
          -80          -80          -80          -80          -80
          -80          -80          -80          -80          -80
          -80          -80          -80          -80          -80
          -80          -80          -80          -80          -80
          -80          -80          -80          -80          -80
          -80          -80          -80          -80          -80
          -80          -80          -80          -80          -80
          -80          -80          -80          -80          -80
          -80          -80          -80          -80          -80
          -80          -80          -80          -80          -80
          -80          -80          -80          -80          -80
          -80          -80          -80          -80          -80
          -80          -80          -80          -80          -80
          -80          -80          -80          -80          -80
          -80          -80          -80          -80          -80
          -80          -80          -80          -80          -80
          -80          -80          -80
        11         1           (5G13.0)         -1               # BOTTOM OF LAYER 5
         -100         -100         -100         -100         -100
         -100         -100         -100         -100         -100
         -100         -100         -100         -100         -100
         -100         -100         -100         -100         -100
         -100         -100         -100         -100         -100
         -100         -100         -100         -100         -100
         -100         -100         -100         -100         -100
         -100         -100         -100         -100         -100
         -100         -100         -100         -100         -100
         -100         -100         -100         -100         -100
         -100         -100         -100         -100         -100
         -100         -100         -100         -100         -100
         -100         -100         -100         -100         -100
         -100         -100         -100         -100         -100
         -100         -100         -100         -100         -100
         -100         -100         -100         -100         -100
         -100         -100         -100         -100         -100
         -100         -100         -100         -100         -100
         -100         -100         -100         -100         -100
         -100         -100         -100         -100         -100
         -100         -100         -100         -100         -100
         -100         -100         -100         -100         -100
         -100         -100         -100
        11         1           (5G13.0)         -1               # BOTTOM OF LAYER 6
         -120         -120         -120         -120         -120
         -120         -120         -120         -120         -120
         -120         -120         -120         -120         -120
         -120         -120         -120         -120         -120
         -120         -120         -120         -120         -120
         -120         -120         -120         -120         -120
         -120         -120         -120         -120         -120
         -120         -120         -120         -120         -120
         -120         -120         -120         -120         -120
         -120         -120         -120         -120         -120
         -120         -120         -120         -120         -120
         -120         -120         -120         -120         -120
         -120         -120         -120         -120         -120
         -120         -120         -120         -120         -120
         -120         -120         -120         -120         -120
         -120         -120         -120         -120         -120
         -120         -120         -120         -120         -120
         -120         -120         -120         -120         -120
         -120         -120         -120         -120         -120
         -120         -120         -120         -120         -120
         -120         -120         -120         -120         -120
         -120         -120         -120         -120         -120
         -120         -120         -120
   1460.000000          1460  1.000000 SS
   1460.000000          1460  1.000000 SS
