# swi2ex4_2d_sww
# MODFLOW-SWI Example problem documented in: 
#   Bakker, M., Schaars, F., Hughes, J.D., Langevin, C.D., Dausman, A.M., 2013, Documentation of the seawater intrusion (SWI2) package for MODFLOW: U.S. Geological Survey Techniques and Methods 6-A46, 47 p.
# 
#-----------------------------------------------------------------------------------------------------------------------------------------------------
# PCG 
       100        50         1
  0.000001  0.003000  1.000000         0         0         3  1.000000
