# swi2ex5
# MODFLOW-SWI Example problem documented in: 
#   Bakker, M., Schaars, F., Hughes, J.D., Langevin, C.D., Dausman, A.M., 2013, Documentation of the seawater intrusion (SWI2) package for MODFLOW: U.S. Geological Survey Techniques and Methods 6-A46, 47 p.
# 
#-----------------------------------------------------------------------------------------------------------------------------------------------------
# LPF
        53  -1.0e+30         0 
 0 0 0 0 0 0
 1 1 1 1 1 1
 1 1 1 1 1 1
 0 0 0 0 0 0
 0 0 0 0 0 0
        15         1         (113G13.0)         -1               # HK() = Horizontal hydraulic conductivity of layer 1
      1704.17      5112.51      8520.84      11929.2      15337.5      18745.9      22154.2      25562.5      28970.9      32379.2      35787.5      39195.9      42604.2      46012.6      49420.9      52829.2      56237.6      59645.9      63054.2      66462.6      69870.9      73279.3      76687.6      80095.9      83504.3      86912.6      90320.9      93729.3      97137.6       100546       103954       107363       110771       114179       117588       120996       124404       127813       131221       134629       138038       141446       144854       148263       151671       155079       158488       161896       165304       168713       172121       175529       178938       182346       185754       189163       192571       195979       199388       202796       206204       209613       213021       216429       219838       223246       226654       230063       233471       236879       240288       243696       247104       250513       253921       257329       260738       264146       267554       270963       274371       277780       281188       284596       288005       291413       294821       298230       301638       305046       308455       311863       315271       318680       322088       325496       328905       332313       335721       339130       342538       345946       349355       352763       356171       359580       362988       366396       369805       373213       376621       380030       383438
        15         1         (113G13.0)         -1               # VKA() = Vertical hydraulic conductivity of layer 1
      665.691      1997.07      3328.45      4659.84      5991.22       7322.6      8653.98      9985.36      11316.7      12648.1      13979.5      15310.9      16642.3      17973.7        19305      20636.4      21967.8      23299.2      24630.6      25961.9      27293.3      28624.7      29956.1      31287.5      32618.9      33950.2      35281.6        36613      37944.4      39275.8      40607.1      41938.5      43269.9      44601.3      45932.7      47264.1      48595.4      49926.8      51258.2      52589.6        53921      55252.3      56583.7      57915.1      59246.5      60577.9      61909.3      63240.6        64572      65903.4      67234.8      68566.2      69897.5      71228.9      72560.3      73891.7      75223.1      76554.5      77885.8      79217.2      80548.6        81880      83211.4      84542.7      85874.1      87205.5      88536.9      89868.3      91199.7        92531      93862.4      95193.8      96525.2      97856.6      99187.9       100519       101851       103182       104513       105845       107176       108508       109839       111170       112502       113833       115165       116496       117827       119159       120490       121821       123153       124484       125816       127147       128478       129810       131141       132472       133804       135135       136467       137798       139129       140461       141792       143124       144455       145786       147118       148449       149780
        15         1         (113G13.0)         -1               # HK() = Horizontal hydraulic conductivity of layer 2
      1704.17      5112.51      8520.84      11929.2      15337.5      18745.9      22154.2      25562.5      28970.9      32379.2      35787.5      39195.9      42604.2      46012.6      49420.9      52829.2      56237.6      59645.9      63054.2      66462.6      69870.9      73279.3      76687.6      80095.9      83504.3      86912.6      90320.9      93729.3      97137.6       100546       103954       107363       110771       114179       117588       120996       124404       127813       131221       134629       138038       141446       144854       148263       151671       155079       158488       161896       165304       168713       172121       175529       178938       182346       185754       189163       192571       195979       199388       202796       206204       209613       213021       216429       219838       223246       226654       230063       233471       236879       240288       243696       247104       250513       253921       257329       260738       264146       267554       270963       274371       277780       281188       284596       288005       291413       294821       298230       301638       305046       308455       311863       315271       318680       322088       325496       328905       332313       335721       339130       342538       345946       349355       352763       356171       359580       362988       366396       369805       373213       376621       380030       383438
        15         1         (113G13.0)         -1               # VKA() = Vertical hydraulic conductivity of layer 2
      665.691      1997.07      3328.45      4659.84      5991.22       7322.6      8653.98      9985.36      11316.7      12648.1      13979.5      15310.9      16642.3      17973.7        19305      20636.4      21967.8      23299.2      24630.6      25961.9      27293.3      28624.7      29956.1      31287.5      32618.9      33950.2      35281.6        36613      37944.4      39275.8      40607.1      41938.5      43269.9      44601.3      45932.7      47264.1      48595.4      49926.8      51258.2      52589.6        53921      55252.3      56583.7      57915.1      59246.5      60577.9      61909.3      63240.6        64572      65903.4      67234.8      68566.2      69897.5      71228.9      72560.3      73891.7      75223.1      76554.5      77885.8      79217.2      80548.6        81880      83211.4      84542.7      85874.1      87205.5      88536.9      89868.3      91199.7        92531      93862.4      95193.8      96525.2      97856.6      99187.9       100519       101851       103182       104513       105845       107176       108508       109839       111170       112502       113833       115165       116496       117827       119159       120490       121821       123153       124484       125816       127147       128478       129810       131141       132472       133804       135135       136467       137798       139129       140461       141792       143124       144455       145786       147118       148449       149780
        15         1         (113G13.0)         -1               # HK() = Horizontal hydraulic conductivity of layer 3
      1704.17      5112.51      8520.84      11929.2      15337.5      18745.9      22154.2      25562.5      28970.9      32379.2      35787.5      39195.9      42604.2      46012.6      49420.9      52829.2      56237.6      59645.9      63054.2      66462.6      69870.9      73279.3      76687.6      80095.9      83504.3      86912.6      90320.9      93729.3      97137.6       100546       103954       107363       110771       114179       117588       120996       124404       127813       131221       134629       138038       141446       144854       148263       151671       155079       158488       161896       165304       168713       172121       175529       178938       182346       185754       189163       192571       195979       199388       202796       206204       209613       213021       216429       219838       223246       226654       230063       233471       236879       240288       243696       247104       250513       253921       257329       260738       264146       267554       270963       274371       277780       281188       284596       288005       291413       294821       298230       301638       305046       308455       311863       315271       318680       322088       325496       328905       332313       335721       339130       342538       345946       349355       352763       356171       359580       362988       366396       369805       373213       376621       380030       383438
        15         1         (113G13.0)         -1               # VKA() = Vertical hydraulic conductivity of layer 3
      665.691      1997.07      3328.45      4659.84      5991.22       7322.6      8653.98      9985.36      11316.7      12648.1      13979.5      15310.9      16642.3      17973.7        19305      20636.4      21967.8      23299.2      24630.6      25961.9      27293.3      28624.7      29956.1      31287.5      32618.9      33950.2      35281.6        36613      37944.4      39275.8      40607.1      41938.5      43269.9      44601.3      45932.7      47264.1      48595.4      49926.8      51258.2      52589.6        53921      55252.3      56583.7      57915.1      59246.5      60577.9      61909.3      63240.6        64572      65903.4      67234.8      68566.2      69897.5      71228.9      72560.3      73891.7      75223.1      76554.5      77885.8      79217.2      80548.6        81880      83211.4      84542.7      85874.1      87205.5      88536.9      89868.3      91199.7        92531      93862.4      95193.8      96525.2      97856.6      99187.9       100519       101851       103182       104513       105845       107176       108508       109839       111170       112502       113833       115165       116496       117827       119159       120490       121821       123153       124484       125816       127147       128478       129810       131141       132472       133804       135135       136467       137798       139129       140461       141792       143124       144455       145786       147118       148449       149780
        15         1         (113G13.0)         -1               # HK() = Horizontal hydraulic conductivity of layer 4
      1704.17      5112.51      8520.84      11929.2      15337.5      18745.9      22154.2      25562.5      28970.9      32379.2      35787.5      39195.9      42604.2      46012.6      49420.9      52829.2      56237.6      59645.9      63054.2      66462.6      69870.9      73279.3      76687.6      80095.9      83504.3      86912.6      90320.9      93729.3      97137.6       100546       103954       107363       110771       114179       117588       120996       124404       127813       131221       134629       138038       141446       144854       148263       151671       155079       158488       161896       165304       168713       172121       175529       178938       182346       185754       189163       192571       195979       199388       202796       206204       209613       213021       216429       219838       223246       226654       230063       233471       236879       240288       243696       247104       250513       253921       257329       260738       264146       267554       270963       274371       277780       281188       284596       288005       291413       294821       298230       301638       305046       308455       311863       315271       318680       322088       325496       328905       332313       335721       339130       342538       345946       349355       352763       356171       359580       362988       366396       369805       373213       376621       380030       383438
        15         1         (113G13.0)         -1               # VKA() = Vertical hydraulic conductivity of layer 4
      665.691      1997.07      3328.45      4659.84      5991.22       7322.6      8653.98      9985.36      11316.7      12648.1      13979.5      15310.9      16642.3      17973.7        19305      20636.4      21967.8      23299.2      24630.6      25961.9      27293.3      28624.7      29956.1      31287.5      32618.9      33950.2      35281.6        36613      37944.4      39275.8      40607.1      41938.5      43269.9      44601.3      45932.7      47264.1      48595.4      49926.8      51258.2      52589.6        53921      55252.3      56583.7      57915.1      59246.5      60577.9      61909.3      63240.6        64572      65903.4      67234.8      68566.2      69897.5      71228.9      72560.3      73891.7      75223.1      76554.5      77885.8      79217.2      80548.6        81880      83211.4      84542.7      85874.1      87205.5      88536.9      89868.3      91199.7        92531      93862.4      95193.8      96525.2      97856.6      99187.9       100519       101851       103182       104513       105845       107176       108508       109839       111170       112502       113833       115165       116496       117827       119159       120490       121821       123153       124484       125816       127147       128478       129810       131141       132472       133804       135135       136467       137798       139129       140461       141792       143124       144455       145786       147118       148449       149780
        15         1         (113G13.0)         -1               # HK() = Horizontal hydraulic conductivity of layer 5
      1704.17      5112.51      8520.84      11929.2      15337.5      18745.9      22154.2      25562.5      28970.9      32379.2      35787.5      39195.9      42604.2      46012.6      49420.9      52829.2      56237.6      59645.9      63054.2      66462.6      69870.9      73279.3      76687.6      80095.9      83504.3      86912.6      90320.9      93729.3      97137.6       100546       103954       107363       110771       114179       117588       120996       124404       127813       131221       134629       138038       141446       144854       148263       151671       155079       158488       161896       165304       168713       172121       175529       178938       182346       185754       189163       192571       195979       199388       202796       206204       209613       213021       216429       219838       223246       226654       230063       233471       236879       240288       243696       247104       250513       253921       257329       260738       264146       267554       270963       274371       277780       281188       284596       288005       291413       294821       298230       301638       305046       308455       311863       315271       318680       322088       325496       328905       332313       335721       339130       342538       345946       349355       352763       356171       359580       362988       366396       369805       373213       376621       380030       383438
        15         1         (113G13.0)         -1               # VKA() = Vertical hydraulic conductivity of layer 5
      665.691      1997.07      3328.45      4659.84      5991.22       7322.6      8653.98      9985.36      11316.7      12648.1      13979.5      15310.9      16642.3      17973.7        19305      20636.4      21967.8      23299.2      24630.6      25961.9      27293.3      28624.7      29956.1      31287.5      32618.9      33950.2      35281.6        36613      37944.4      39275.8      40607.1      41938.5      43269.9      44601.3      45932.7      47264.1      48595.4      49926.8      51258.2      52589.6        53921      55252.3      56583.7      57915.1      59246.5      60577.9      61909.3      63240.6        64572      65903.4      67234.8      68566.2      69897.5      71228.9      72560.3      73891.7      75223.1      76554.5      77885.8      79217.2      80548.6        81880      83211.4      84542.7      85874.1      87205.5      88536.9      89868.3      91199.7        92531      93862.4      95193.8      96525.2      97856.6      99187.9       100519       101851       103182       104513       105845       107176       108508       109839       111170       112502       113833       115165       116496       117827       119159       120490       121821       123153       124484       125816       127147       128478       129810       131141       132472       133804       135135       136467       137798       139129       140461       141792       143124       144455       145786       147118       148449       149780
        15         1         (113G13.0)         -1               # HK() = Horizontal hydraulic conductivity of layer 6
      1704.17      5112.51      8520.84      11929.2      15337.5      18745.9      22154.2      25562.5      28970.9      32379.2      35787.5      39195.9      42604.2      46012.6      49420.9      52829.2      56237.6      59645.9      63054.2      66462.6      69870.9      73279.3      76687.6      80095.9      83504.3      86912.6      90320.9      93729.3      97137.6       100546       103954       107363       110771       114179       117588       120996       124404       127813       131221       134629       138038       141446       144854       148263       151671       155079       158488       161896       165304       168713       172121       175529       178938       182346       185754       189163       192571       195979       199388       202796       206204       209613       213021       216429       219838       223246       226654       230063       233471       236879       240288       243696       247104       250513       253921       257329       260738       264146       267554       270963       274371       277780       281188       284596       288005       291413       294821       298230       301638       305046       308455       311863       315271       318680       322088       325496       328905       332313       335721       339130       342538       345946       349355       352763       356171       359580       362988       366396       369805       373213       376621       380030       383438
        15         1         (113G13.0)         -1               # VKA() = Vertical hydraulic conductivity of layer 6
      665.691      1997.07      3328.45      4659.84      5991.22       7322.6      8653.98      9985.36      11316.7      12648.1      13979.5      15310.9      16642.3      17973.7        19305      20636.4      21967.8      23299.2      24630.6      25961.9      27293.3      28624.7      29956.1      31287.5      32618.9      33950.2      35281.6        36613      37944.4      39275.8      40607.1      41938.5      43269.9      44601.3      45932.7      47264.1      48595.4      49926.8      51258.2      52589.6        53921      55252.3      56583.7      57915.1      59246.5      60577.9      61909.3      63240.6        64572      65903.4      67234.8      68566.2      69897.5      71228.9      72560.3      73891.7      75223.1      76554.5      77885.8      79217.2      80548.6        81880      83211.4      84542.7      85874.1      87205.5      88536.9      89868.3      91199.7        92531      93862.4      95193.8      96525.2      97856.6      99187.9       100519       101851       103182       104513       105845       107176       108508       109839       111170       112502       113833       115165       116496       117827       119159       120490       121821       123153       124484       125816       127147       128478       129810       131141       132472       133804       135135       136467       137798       139129       140461       141792       143124       144455       145786       147118       148449       149780
