# swi2ex6_3
# MODFLOW-SWI Example problem documented in: 
#   Bakker, M., Schaars, F., Hughes, J.D., Langevin, C.D., Dausman, A.M., 2013, Documentation of the seawater intrusion (SWI2) package for MODFLOW: U.S. Geological Survey Techniques and Methods 6-A46, 47 p.
# 
#      -Comments are preceded by a # sign
#
#-----------------------------------------------------------------------------------------------------------------------------------------------------
# DIS
         3         1       200         1         4         2
  0  0  0
        0  2.000e+01           (5G13.0)         -1               # DELR(NCOL)
        0  1.000e+00           (5G13.0)         -1               # DELC(NROW)
        11         1           (5G13.0)         -1               # TOP OF SYSTEM
           41           41           41           41           41
           41           41           41           41           41
           41           41           41           41           41
           41           41           41           41           41
           41           41           41           41           41
           41           41           41           41           41
           41           41           41           41           41
           41           41           41           41           41
           41           41           41           41           41
           41           41           41           41           41
           41           41           41           41           41
           41           41           41           41           41
           41           41           41           41           41
           41           41           41           41           41
           41           41           41           41           41
           41           41           41           41           41
           41           41           41           41           41
           41           41           41           41           41
           41           41           41           41           41
           41           41           41           41           41
           41           41           41           41           41
           41           41           41           41           41
           41           41           41           41           41
           41           41           41           41           41
           41           41           41           41           41
           41           41           41           41           41
           41           41           41           41           41
           41           41           41           41           41
           41           41           41           41           41
           41           41           41           41           41
           41           41           41           41           41
           41           41           41           41           41
           41           41           41           41           41
           41           41           41           41           41
           41           41           41           41           41
           41           41           41           41           41
           41           41           41           41           41
           41           41           41           41           41
           41           41           41           41           41
           41           41           41           41           41
        11         1           (5G13.0)         -1               # BOTTOM OF LAYER 1
           21           21           21           21           21
           21           21           21           21           21
           21           21           21           21           21
           21           21           21           21           21
           21           21           21           21           21
           21           21           21           21           21
           21           21           21           21           21
           21           21           21           21           21
           21           21           21           21           21
           21           21           21           21           21
           21           21           21           21           21
           21           21           21           21           21
           21           21           21           21           21
           21           21           21           21           21
           21           21           21           21           21
           21           21           21           21           21
           21           21           21           21           21
           21           21           21           21           21
           21           21           21           21           21
           21           21           21           21           21
           21           21           21           21           21
           21           21           21           21           21
           21           21           21           21           21
           21           21           21           21           21
           21           21           21           21           21
           21           21           21           21           21
           21           21           21           21           21
           21           21           21           21           21
           21           21           21           21           21
           21           21           21           21           21
           21           21           21           21           21
           21           21           21           21           21
           21           21           21           21           21
           21           21           21           21           21
           21           21           21           21           21
           21           21           21           21           21
           21           21           21           21           21
           21           21           21           21           21
           21           21           21           21           21
           21           21           21           21           21
        11         1           (5G13.0)         -1               # BOTTOM OF LAYER 2
           20           20           20           20           20
           20           20           20           20           20
           20           20           20           20           20
           20           20           20           20           20
           20           20           20           20           20
           20           20           20           20           20
           20           20           20           20           20
           20           20           20           20           20
           20           20           20           20           20
           20           20           20           20           20
           20           20           20           20           20
           20           20           20           20           20
           20           20           20           20           20
           20           20           20           20           20
           20           20           20           20           20
           20           20           20           20           20
           20           20           20           20           20
           20           20           20           20           20
           20           20           20           20           20
           20           20           20           20           20
           20           20           20           20           20
           20           20           20           20           20
           20           20           20           20           20
           20           20           20           20           20
           20           20           20           20           20
           20           20           20           20           20
           20           20           20           20           20
           20           20           20           20           20
           20           20           20           20           20
           20           20           20           20           20
           20           20           20           20           20
           20           20           20           20           20
           20           20           20           20           20
           20           20           20           20           20
           20           20           20           20           20
           20           20           20           20           20
           20           20           20           20           20
           20           20           20           20           20
           20           20           20           20           20
           20           20           20           20           20
        11         1           (5G13.0)         -1               # BOTTOM OF LAYER 3
            0            0            0            0            0
            0            0            0            0            0
            0            0            0            0            0
            0            0            0            0            0
            0            0            0            0            0
            0            0            0            0            0
            0            0            0            0            0
            0            0            0            0            0
            0            0            0            0            0
            0            0            0            0            0
            0            0            0            0            0
            0            0            0            0            0
            0            0            0            0            0
            0            0            0            0            0
            0            0            0            0            0
            0            0            0            0            0
            0            0            0            0            0
            0            0            0            0            0
            0            0            0            0            0
            0            0            0            0            0
            0            0            0            0            0
            0            0            0            0            0
            0            0            0            0            0
            0            0            0            0            0
            0            0            0            0            0
            0            0            0            0            0
            0            0            0            0            0
            0            0            0            0            0
            0            0            0            0            0
            0            0            0            0            0
            0            0            0            0            0
            0            0            0            0            0
            0            0            0            0            0
            0            0            0            0            0
            0            0            0            0            0
            0            0            0            0            0
            0            0            0            0            0
            0            0            0            0            0
            0            0            0            0            0
            0            0            0            0            0
 182500.000000           500  1.000000 SS
