# swi2ex3
# MODFLOW-SWI Example problem documented in: 
#   Bakker, M., Schaars, F., Hughes, J.D., Langevin, C.D., Dausman, A.M., 2013, Documentation of the seawater intrusion (SWI2) package for MODFLOW: U.S. Geological Survey Techniques and Methods 6-A46, 47 p.
# 
#-----------------------------------------------------------------------------------------------------------------------------------------------------
# GHB
        30         0
        30         0
        1         1         1  0.000000e+00  4.000000e-01
        1         1         2  0.000000e+00  4.000000e-01
        1         1         3  0.000000e+00  4.000000e-01
        1         1         4  0.000000e+00  4.000000e-01
        1         1         5  0.000000e+00  4.000000e-01
        1         1         6  0.000000e+00  4.000000e-01
        1         1         7  0.000000e+00  4.000000e-01
        1         1         8  0.000000e+00  4.000000e-01
        1         1         9  0.000000e+00  4.000000e-01
        1         1        10  0.000000e+00  4.000000e-01
        1         1        11  0.000000e+00  4.000000e-01
        1         1        12  0.000000e+00  4.000000e-01
        1         1        13  0.000000e+00  4.000000e-01
        1         1        14  0.000000e+00  4.000000e-01
        1         1        15  0.000000e+00  4.000000e-01
        1         1        16  0.000000e+00  4.000000e-01
        1         1        17  0.000000e+00  4.000000e-01
        1         1        18  0.000000e+00  4.000000e-01
        1         1        19  0.000000e+00  4.000000e-01
        1         1        20  0.000000e+00  4.000000e-01
        1         1        21  0.000000e+00  4.000000e-01
        1         1        22  0.000000e+00  4.000000e-01
        1         1        23  0.000000e+00  4.000000e-01
        1         1        24  0.000000e+00  4.000000e-01
        1         1        25  0.000000e+00  4.000000e-01
        1         1        26  0.000000e+00  4.000000e-01
        1         1        27  0.000000e+00  4.000000e-01
        1         1        28  0.000000e+00  4.000000e-01
        1         1        29  0.000000e+00  4.000000e-01
        1         1        30  0.000000e+00  4.000000e-01
        30         0
        1         1         1  0.000000e+00  4.000000e-01
        1         1         2  0.000000e+00  4.000000e-01
        1         1         3  0.000000e+00  4.000000e-01
        1         1         4  0.000000e+00  4.000000e-01
        1         1         5  0.000000e+00  4.000000e-01
        1         1         6  0.000000e+00  4.000000e-01
        1         1         7  0.000000e+00  4.000000e-01
        1         1         8  0.000000e+00  4.000000e-01
        1         1         9  0.000000e+00  4.000000e-01
        1         1        10  0.000000e+00  4.000000e-01
        1         1        11  0.000000e+00  4.000000e-01
        1         1        12  0.000000e+00  4.000000e-01
        1         1        13  0.000000e+00  4.000000e-01
        1         1        14  0.000000e+00  4.000000e-01
        1         1        15  0.000000e+00  4.000000e-01
        1         1        16  0.000000e+00  4.000000e-01
        1         1        17  0.000000e+00  4.000000e-01
        1         1        18  0.000000e+00  4.000000e-01
        1         1        19  0.000000e+00  4.000000e-01
        1         1        20  0.000000e+00  4.000000e-01
        1         1        21  0.000000e+00  4.000000e-01
        1         1        22  0.000000e+00  4.000000e-01
        1         1        23  0.000000e+00  4.000000e-01
        1         1        24  0.000000e+00  4.000000e-01
        1         1        25  0.000000e+00  4.000000e-01
        1         1        26  0.000000e+00  4.000000e-01
        1         1        27  0.000000e+00  4.000000e-01
        1         1        28  0.000000e+00  4.000000e-01
        1         1        29  0.000000e+00  4.000000e-01
        1         1        30  0.000000e+00  4.000000e-01
