# swi2ex5
# MODFLOW-SWI Example problem documented in: 
#   Bakker, M., Schaars, F., Hughes, J.D., Langevin, C.D., Dausman, A.M., 2013, Documentation of the seawater intrusion (SWI2) package for MODFLOW: U.S. Geological Survey Techniques and Methods 6-A46, 47 p.
# 
#      -Comments are preceded by a # sign
#
#-----------------------------------------------------------------------------------------------------------------------------------------------------
# Salt Water Intrusion package 
#--Dataset 1
         1         1         0        55        56         0
#--Dataset 2a
         2         0         3
#--Dataset 2b
       100        20         1  1.000000e-06  3.000000e-03  1.000000e+00         2  1.000000e+00  1.000000e+00
#--Dataset 3a
  5.000000e-02  5.000000e-02  0.1  0.1
#--Dataset 4
        29         1          (20G13.0)         -1 
            0        0.025
#--Dataset 5
        0 -1.000e+02         (113G13.0)         -1 
        0 -1.000e+02         (113G13.0)         -1 
        0 -1.000e+02         (113G13.0)         -1 
        0 -1.000e+02         (113G13.0)         -1 
        0 -1.000e+02         (113G13.0)         -1 
        0 -1.000e+02         (113G13.0)         -1 
#--Dataset 6
        29         1         (113G13.0)         -1 
       15.708      47.1239      78.5398      109.956      141.372      172.788      204.204      235.619      267.035      298.451      329.867      361.283      392.699      424.115      455.531      486.947      518.363      549.779      581.195      612.611      644.026      675.442      706.858      738.274       769.69      801.106      832.522      863.938      895.354       926.77      958.186      989.602      1021.02      1052.43      1083.85      1115.27      1146.68       1178.1      1209.51      1240.93      1272.35      1303.76      1335.18      1366.59      1398.01      1429.42      1460.84      1492.26      1523.67      1555.09       1586.5      1617.92      1649.34      1680.75      1712.17      1743.58         1775      1806.42      1837.83      1869.25      1900.66      1932.08       1963.5      1994.91      2026.33      2057.74      2089.16      2120.58      2151.99      2183.41      2214.82      2246.24      2277.65      2309.07      2340.49       2371.9      2403.32      2434.73      2466.15      2497.57      2528.98       2560.4      2591.81      2623.23      2654.65      2686.06      2717.48      2748.89      2780.31      2811.73      2843.14      2874.56      2905.97      2937.39      2968.81      3000.22      3031.64      3063.05      3094.47      3125.88       3157.3      3188.72      3220.13      3251.55      3282.96      3314.38       3345.8      3377.21      3408.63      3440.04      3471.46      3502.88      3534.29
        29         1         (113G13.0)         -1 
       15.708      47.1239      78.5398      109.956      141.372      172.788      204.204      235.619      267.035      298.451      329.867      361.283      392.699      424.115      455.531      486.947      518.363      549.779      581.195      612.611      644.026      675.442      706.858      738.274       769.69      801.106      832.522      863.938      895.354       926.77      958.186      989.602      1021.02      1052.43      1083.85      1115.27      1146.68       1178.1      1209.51      1240.93      1272.35      1303.76      1335.18      1366.59      1398.01      1429.42      1460.84      1492.26      1523.67      1555.09       1586.5      1617.92      1649.34      1680.75      1712.17      1743.58         1775      1806.42      1837.83      1869.25      1900.66      1932.08       1963.5      1994.91      2026.33      2057.74      2089.16      2120.58      2151.99      2183.41      2214.82      2246.24      2277.65      2309.07      2340.49       2371.9      2403.32      2434.73      2466.15      2497.57      2528.98       2560.4      2591.81      2623.23      2654.65      2686.06      2717.48      2748.89      2780.31      2811.73      2843.14      2874.56      2905.97      2937.39      2968.81      3000.22      3031.64      3063.05      3094.47      3125.88       3157.3      3188.72      3220.13      3251.55      3282.96      3314.38       3345.8      3377.21      3408.63      3440.04      3471.46      3502.88      3534.29
        29         1         (113G13.0)         -1 
       15.708      47.1239      78.5398      109.956      141.372      172.788      204.204      235.619      267.035      298.451      329.867      361.283      392.699      424.115      455.531      486.947      518.363      549.779      581.195      612.611      644.026      675.442      706.858      738.274       769.69      801.106      832.522      863.938      895.354       926.77      958.186      989.602      1021.02      1052.43      1083.85      1115.27      1146.68       1178.1      1209.51      1240.93      1272.35      1303.76      1335.18      1366.59      1398.01      1429.42      1460.84      1492.26      1523.67      1555.09       1586.5      1617.92      1649.34      1680.75      1712.17      1743.58         1775      1806.42      1837.83      1869.25      1900.66      1932.08       1963.5      1994.91      2026.33      2057.74      2089.16      2120.58      2151.99      2183.41      2214.82      2246.24      2277.65      2309.07      2340.49       2371.9      2403.32      2434.73      2466.15      2497.57      2528.98       2560.4      2591.81      2623.23      2654.65      2686.06      2717.48      2748.89      2780.31      2811.73      2843.14      2874.56      2905.97      2937.39      2968.81      3000.22      3031.64      3063.05      3094.47      3125.88       3157.3      3188.72      3220.13      3251.55      3282.96      3314.38       3345.8      3377.21      3408.63      3440.04      3471.46      3502.88      3534.29
        29         1         (113G13.0)         -1 
       15.708      47.1239      78.5398      109.956      141.372      172.788      204.204      235.619      267.035      298.451      329.867      361.283      392.699      424.115      455.531      486.947      518.363      549.779      581.195      612.611      644.026      675.442      706.858      738.274       769.69      801.106      832.522      863.938      895.354       926.77      958.186      989.602      1021.02      1052.43      1083.85      1115.27      1146.68       1178.1      1209.51      1240.93      1272.35      1303.76      1335.18      1366.59      1398.01      1429.42      1460.84      1492.26      1523.67      1555.09       1586.5      1617.92      1649.34      1680.75      1712.17      1743.58         1775      1806.42      1837.83      1869.25      1900.66      1932.08       1963.5      1994.91      2026.33      2057.74      2089.16      2120.58      2151.99      2183.41      2214.82      2246.24      2277.65      2309.07      2340.49       2371.9      2403.32      2434.73      2466.15      2497.57      2528.98       2560.4      2591.81      2623.23      2654.65      2686.06      2717.48      2748.89      2780.31      2811.73      2843.14      2874.56      2905.97      2937.39      2968.81      3000.22      3031.64      3063.05      3094.47      3125.88       3157.3      3188.72      3220.13      3251.55      3282.96      3314.38       3345.8      3377.21      3408.63      3440.04      3471.46      3502.88      3534.29
        29         1         (113G13.0)         -1 
       15.708      47.1239      78.5398      109.956      141.372      172.788      204.204      235.619      267.035      298.451      329.867      361.283      392.699      424.115      455.531      486.947      518.363      549.779      581.195      612.611      644.026      675.442      706.858      738.274       769.69      801.106      832.522      863.938      895.354       926.77      958.186      989.602      1021.02      1052.43      1083.85      1115.27      1146.68       1178.1      1209.51      1240.93      1272.35      1303.76      1335.18      1366.59      1398.01      1429.42      1460.84      1492.26      1523.67      1555.09       1586.5      1617.92      1649.34      1680.75      1712.17      1743.58         1775      1806.42      1837.83      1869.25      1900.66      1932.08       1963.5      1994.91      2026.33      2057.74      2089.16      2120.58      2151.99      2183.41      2214.82      2246.24      2277.65      2309.07      2340.49       2371.9      2403.32      2434.73      2466.15      2497.57      2528.98       2560.4      2591.81      2623.23      2654.65      2686.06      2717.48      2748.89      2780.31      2811.73      2843.14      2874.56      2905.97      2937.39      2968.81      3000.22      3031.64      3063.05      3094.47      3125.88       3157.3      3188.72      3220.13      3251.55      3282.96      3314.38       3345.8      3377.21      3408.63      3440.04      3471.46      3502.88      3534.29
        29         1         (113G13.0)         -1 
       15.708      47.1239      78.5398      109.956      141.372      172.788      204.204      235.619      267.035      298.451      329.867      361.283      392.699      424.115      455.531      486.947      518.363      549.779      581.195      612.611      644.026      675.442      706.858      738.274       769.69      801.106      832.522      863.938      895.354       926.77      958.186      989.602      1021.02      1052.43      1083.85      1115.27      1146.68       1178.1      1209.51      1240.93      1272.35      1303.76      1335.18      1366.59      1398.01      1429.42      1460.84      1492.26      1523.67      1555.09       1586.5      1617.92      1649.34      1680.75      1712.17      1743.58         1775      1806.42      1837.83      1869.25      1900.66      1932.08       1963.5      1994.91      2026.33      2057.74      2089.16      2120.58      2151.99      2183.41      2214.82      2246.24      2277.65      2309.07      2340.49       2371.9      2403.32      2434.73      2466.15      2497.57      2528.98       2560.4      2591.81      2623.23      2654.65      2686.06      2717.48      2748.89      2780.31      2811.73      2843.14      2874.56      2905.97      2937.39      2968.81      3000.22      3031.64      3063.05      3094.47      3125.88       3157.3      3188.72      3220.13      3251.55      3282.96      3314.38       3345.8      3377.21      3408.63      3440.04      3471.46      3502.88      3534.29
#--Dataset 7
        29         1           (113I13)         -1 
            0            0            0            0            0            0            0            0            0            0            0            0            0            0            0            0            0            0            0            0            0            0            0            0            0            0            0            0            0            0            0            0            0            0            0            0            0            0            0            0            0            0            0            0            0            0            0            0            0            0            0            0            0            0            0            0            0            0            0            0            0            0            0            0            0            0            0            0            0            0            0            0            0            0            0            0            0            0            0            0            0            0            0            0            0            0            0            0            0            0            0            0            0            0            0            0            0            0            0            0            0            0            0            0            0            0            0            0            0            0            0            0           -1
        29         1           (113I13)         -1 
            0            0            0            0            0            0            0            0            0            0            0            0            0            0            0            0            0            0            0            0            0            0            0            0            0            0            0            0            0            0            0            0            0            0            0            0            0            0            0            0            0            0            0            0            0            0            0            0            0            0            0            0            0            0            0            0            0            0            0            0            0            0            0            0            0            0            0            0            0            0            0            0            0            0            0            0            0            0            0            0            0            0            0            0            0            0            0            0            0            0            0            0            0            0            0            0            0            0            0            0            0            0            0            0            0            0            0            0            0            0            0            0           -1
        29         1           (113I13)         -1 
            0            0            0            0            0            0            0            0            0            0            0            0            0            0            0            0            0            0            0            0            0            0            0            0            0            0            0            0            0            0            0            0            0            0            0            0            0            0            0            0            0            0            0            0            0            0            0            0            0            0            0            0            0            0            0            0            0            0            0            0            0            0            0            0            0            0            0            0            0            0            0            0            0            0            0            0            0            0            0            0            0            0            0            0            0            0            0            0            0            0            0            0            0            0            0            0            0            0            0            0            0            0            0            0            0            0            0            0            0            0            0            0           -1
        29         1           (113I13)         -1 
            0            0            0            0            0            0            0            0            0            0            0            0            0            0            0            0            0            0            0            0            0            0            0            0            0            0            0            0            0            0            0            0            0            0            0            0            0            0            0            0            0            0            0            0            0            0            0            0            0            0            0            0            0            0            0            0            0            0            0            0            0            0            0            0            0            0            0            0            0            0            0            0            0            0            0            0            0            0            0            0            0            0            0            0            0            0            0            0            0            0            0            0            0            0            0            0            0            0            0            0            0            0            0            0            0            0            0            0            0            0            0            0           -1
        29         1           (113I13)         -1 
            0            0            0            0            0            0            0            0            0            0            0            0            0            0            0            0            0            0            0            0            0            0            0            0            0            0            0            0            0            0            0            0            0            0            0            0            0            0            0            0            0            0            0            0            0            0            0            0            0            0            0            0            0            0            0            0            0            0            0            0            0            0            0            0            0            0            0            0            0            0            0            0            0            0            0            0            0            0            0            0            0            0            0            0            0            0            0            0            0            0            0            0            0            0            0            0            0            0            0            0            0            0            0            0            0            0            0            0            0            0            0            0           -1
        29         1           (113I13)         -1 
            0            0            0            0            0            0            0            0            0            0            0            0            0            0            0            0            0            0            0            0            0            0            0            0            0            0            0            0            0            0            0            0            0            0            0            0            0            0            0            0            0            0            0            0            0            0            0            0            0            0            0            0            0            0            0            0            0            0            0            0            0            0            0            0            0            0            0            0            0            0            0            0            0            0            0            0            0            0            0            0            0            0            0            0            0            0            0            0            0            0            0            0            0            0            0            0            0            0            0            0            0            0            0            0            0            0            0            0            0            0            0            0           -2
