# swi2ex4_2d
# MODFLOW-SWI Example problem documented in: 
#   Bakker, M., Schaars, F., Hughes, J.D., Langevin, C.D., Dausman, A.M., 2013, Documentation of the seawater intrusion (SWI2) package for MODFLOW: U.S. Geological Survey Techniques and Methods 6-A46, 47 p.
# 
#      -Comments are preceded by a # sign
#
#-----------------------------------------------------------------------------------------------------------------------------------------------------

# Salt Water Intrusion (SWI2) package
#--Dataset 1
         1         1         0        55        56         0
#--Dataset 2a
         1         0         3
#--Dataset 3a
  5.000000e-03  5.000000e-03  0.1  0.1
#--Dataset 4
INTERNAL               1  (2G15.6)  -1 #nu                            
   0.000000E+00   2.500000E-02
#--Dataset 5
INTERNAL               1 (61G15.6)  -1 #zeta_1 Layer 1                
  -1.000000E+01  -1.000000E+01  -1.000000E+01  -1.000000E+01  -1.000000E+01  -1.000000E+01  -1.000000E+01  -1.000000E+01  -1.000000E+01  -1.000000E+01  -1.000000E+01  -1.000000E+01  -1.000000E+01  -1.000000E+01  -1.000000E+01  -1.000000E+01  -1.000000E+01  -1.000000E+01  -1.000000E+01  -1.000000E+01  -1.000000E+01  -1.000000E+01  -1.000000E+01  -1.000000E+01  -1.000000E+01  -1.000000E+01  -1.000000E+01  -1.000000E+01  -1.000000E+01  -1.000000E+01  -1.000000E+01  -1.000000E+01  -1.000000E+01  -1.000000E+01  -1.000000E+01  -1.000000E+01  -1.000000E+01  -1.000000E+01  -1.000000E+01  -1.000000E+01  -1.000000E+01  -1.000000E+01  -1.000000E+01  -1.000000E+01  -1.000000E+01  -1.000000E+01  -1.000000E+01  -1.000000E+01  -1.000000E+01  -1.000000E+01  -1.000000E+01  -1.000000E+01  -1.000000E+01  -1.000000E+01  -1.000000E+01  -1.000000E+01  -1.000000E+01  -1.000000E+01  -1.000000E+01  -1.000000E+01  -1.000000E+01
  -1.000000E+01  -1.000000E+01  -1.000000E+01  -1.000000E+01  -1.000000E+01  -1.000000E+01  -1.000000E+01  -1.000000E+01  -1.000000E+01  -1.000000E+01  -1.000000E+01  -1.000000E+01  -1.000000E+01  -1.000000E+01  -1.000000E+01  -1.000000E+01  -1.000000E+01  -1.000000E+01  -1.000000E+01  -1.000000E+01  -1.000000E+01  -1.000000E+01  -1.000000E+01  -1.000000E+01  -1.000000E+01  -1.000000E+01  -1.000000E+01  -1.000000E+01  -1.000000E+01  -1.000000E+01  -1.000000E+01  -1.000000E+01  -1.000000E+01  -1.000000E+01  -1.000000E+01  -1.000000E+01  -1.000000E+01  -1.000000E+01  -1.000000E+01  -1.000000E+01  -1.000000E+01  -1.000000E+01  -1.000000E+01  -1.000000E+01  -1.000000E+01  -1.000000E+01  -1.000000E+01  -1.000000E+01  -1.000000E+01  -1.000000E+01  -1.000000E+01  -1.000000E+01  -1.000000E+01  -1.000000E+01  -1.000000E+01  -1.000000E+01  -1.000000E+01  -1.000000E+01  -1.000000E+01  -1.000000E+01  -1.000000E+01
  -1.000000E+01  -1.000000E+01  -1.000000E+01  -1.000000E+01  -1.000000E+01  -1.000000E+01  -1.000000E+01  -1.000000E+01  -1.000000E+01  -1.000000E+01  -1.000000E+01  -1.000000E+01  -1.000000E+01  -1.000000E+01  -1.000000E+01  -1.000000E+01  -1.000000E+01  -1.000000E+01  -1.000000E+01  -1.000000E+01  -1.000000E+01  -1.000000E+01  -1.000000E+01  -1.000000E+01  -1.000000E+01  -1.000000E+01  -1.000000E+01  -1.000000E+01  -1.000000E+01  -1.000000E+01  -1.000000E+01  -1.000000E+01  -1.000000E+01  -1.000000E+01  -1.000000E+01  -1.000000E+01  -1.000000E+01  -1.000000E+01  -1.000000E+01  -1.000000E+01  -1.000000E+01  -1.000000E+01  -1.000000E+01  -1.000000E+01  -1.000000E+01  -1.000000E+01  -1.000000E+01  -1.000000E+01  -1.000000E+01  -1.000000E+01  -1.000000E+01  -1.000000E+01  -1.000000E+01  -1.000000E+01  -1.000000E+01  -1.000000E+01  -1.000000E+01  -1.000000E+01  -1.000000E+01  -1.000000E+01  -1.000000E+01
  -1.000000E+01  -1.000000E+01  -1.000000E+01  -1.000000E+01  -1.000000E+01  -1.000000E+01  -1.000000E+01  -1.000000E+01  -1.000000E+01  -1.000000E+01  -1.000000E+01  -1.000000E+01  -1.000000E+01  -1.000000E+01  -1.000000E+01  -1.000000E+01  -1.000000E+01  -1.000000E+01  -1.000000E+01  -1.000000E+01  -1.000000E+01  -1.000000E+01  -1.000000E+01  -1.000000E+01  -1.000000E+01  -1.000000E+01  -1.000000E+01  -1.000000E+01  -1.000000E+01  -1.000000E+01  -1.000000E+01  -1.000000E+01  -1.000000E+01  -1.000000E+01  -1.000000E+01  -1.000000E+01  -1.000000E+01  -1.000000E+01  -1.000000E+01  -1.000000E+01  -1.000000E+01  -1.000000E+01  -1.000000E+01  -1.000000E+01  -1.000000E+01  -1.000000E+01  -1.000000E+01  -1.000000E+01  -1.000000E+01  -1.000000E+01  -1.000000E+01  -1.000000E+01  -1.000000E+01  -1.000000E+01  -1.000000E+01  -1.000000E+01  -1.000000E+01  -1.000000E+01  -1.000000E+01  -1.000000E+01  -1.000000E+01
  -1.000000E+01  -1.000000E+01  -1.000000E+01  -1.000000E+01  -1.000000E+01  -1.000000E+01  -1.000000E+01  -1.000000E+01  -1.000000E+01  -1.000000E+01  -1.000000E+01  -1.000000E+01  -1.000000E+01  -1.000000E+01  -1.000000E+01  -1.000000E+01  -1.000000E+01  -1.000000E+01  -1.000000E+01  -1.000000E+01  -1.000000E+01  -1.000000E+01  -1.000000E+01  -1.000000E+01  -1.000000E+01  -1.000000E+01  -1.000000E+01  -1.000000E+01  -1.000000E+01  -1.000000E+01  -1.000000E+01  -1.000000E+01  -1.000000E+01  -1.000000E+01  -1.000000E+01  -1.000000E+01  -1.000000E+01  -1.000000E+01  -1.000000E+01  -1.000000E+01  -1.000000E+01  -1.000000E+01  -1.000000E+01  -1.000000E+01  -1.000000E+01  -1.000000E+01  -1.000000E+01  -1.000000E+01  -1.000000E+01  -1.000000E+01  -1.000000E+01  -1.000000E+01  -1.000000E+01  -1.000000E+01  -1.000000E+01  -1.000000E+01  -1.000000E+01  -1.000000E+01  -1.000000E+01  -1.000000E+01  -1.000000E+01
  -1.000000E+01  -1.000000E+01  -1.000000E+01  -1.000000E+01  -1.000000E+01  -1.000000E+01  -1.000000E+01  -1.000000E+01  -1.000000E+01  -1.000000E+01  -1.000000E+01  -1.000000E+01  -1.000000E+01  -1.000000E+01  -1.000000E+01  -1.000000E+01  -1.000000E+01  -1.000000E+01  -1.000000E+01  -1.000000E+01  -1.000000E+01  -1.000000E+01  -1.000000E+01  -1.000000E+01  -1.000000E+01  -1.000000E+01  -1.000000E+01  -1.000000E+01  -1.000000E+01  -1.000000E+01  -1.000000E+01  -1.000000E+01  -1.000000E+01  -1.000000E+01  -1.000000E+01  -1.000000E+01  -1.000000E+01  -1.000000E+01  -1.000000E+01  -1.000000E+01  -1.000000E+01  -1.000000E+01  -1.000000E+01  -1.000000E+01  -1.000000E+01  -1.000000E+01  -1.000000E+01  -1.000000E+01  -1.000000E+01  -1.000000E+01  -1.000000E+01  -1.000000E+01  -1.000000E+01  -1.000000E+01  -1.000000E+01  -1.000000E+01  -1.000000E+01  -1.000000E+01  -1.000000E+01  -1.000000E+01  -1.000000E+01
  -1.000000E+01  -1.000000E+01  -1.000000E+01  -1.000000E+01  -1.000000E+01  -1.000000E+01  -1.000000E+01  -1.000000E+01  -1.000000E+01  -1.000000E+01  -1.000000E+01  -1.000000E+01  -1.000000E+01  -1.000000E+01  -1.000000E+01  -1.000000E+01  -1.000000E+01  -1.000000E+01  -1.000000E+01  -1.000000E+01  -1.000000E+01  -1.000000E+01  -1.000000E+01  -1.000000E+01  -1.000000E+01  -1.000000E+01  -1.000000E+01  -1.000000E+01  -1.000000E+01  -1.000000E+01  -1.000000E+01  -1.000000E+01  -1.000000E+01  -1.000000E+01  -1.000000E+01  -1.000000E+01  -1.000000E+01  -1.000000E+01  -1.000000E+01  -1.000000E+01  -1.000000E+01  -1.000000E+01  -1.000000E+01  -1.000000E+01  -1.000000E+01  -1.000000E+01  -1.000000E+01  -1.000000E+01  -1.000000E+01  -1.000000E+01  -1.000000E+01  -1.000000E+01  -1.000000E+01  -1.000000E+01  -1.000000E+01  -1.000000E+01  -1.000000E+01  -1.000000E+01  -1.000000E+01  -1.000000E+01  -1.000000E+01
  -1.000000E+01  -1.000000E+01  -1.000000E+01  -1.000000E+01  -1.000000E+01  -1.000000E+01  -1.000000E+01  -1.000000E+01  -1.000000E+01  -1.000000E+01  -1.000000E+01  -1.000000E+01  -1.000000E+01  -1.000000E+01  -1.000000E+01  -1.000000E+01  -1.000000E+01  -1.000000E+01  -1.000000E+01  -1.000000E+01  -1.000000E+01  -1.000000E+01  -1.000000E+01  -1.000000E+01  -1.000000E+01  -1.000000E+01  -1.000000E+01  -1.000000E+01  -1.000000E+01  -1.000000E+01  -1.000000E+01  -1.000000E+01  -1.000000E+01  -1.000000E+01  -1.000000E+01  -1.000000E+01  -1.000000E+01  -1.000000E+01  -1.000000E+01  -1.000000E+01  -1.000000E+01  -1.000000E+01  -1.000000E+01  -1.000000E+01  -1.000000E+01  -1.000000E+01  -1.000000E+01  -1.000000E+01  -1.000000E+01  -1.000000E+01  -1.000000E+01  -1.000000E+01  -1.000000E+01  -1.000000E+01  -1.000000E+01  -1.000000E+01  -1.000000E+01  -1.000000E+01  -1.000000E+01  -1.000000E+01  -1.000000E+01
  -1.000000E+01  -1.000000E+01  -1.000000E+01  -1.000000E+01  -1.000000E+01  -1.000000E+01  -1.000000E+01  -1.000000E+01  -1.000000E+01  -1.000000E+01  -1.000000E+01  -1.000000E+01  -1.000000E+01  -1.000000E+01  -1.000000E+01  -1.000000E+01  -1.000000E+01  -1.000000E+01  -1.000000E+01  -1.000000E+01  -1.000000E+01  -1.000000E+01  -1.000000E+01  -1.000000E+01  -1.000000E+01  -1.000000E+01  -1.000000E+01  -1.000000E+01  -1.000000E+01  -1.000000E+01  -1.000000E+01  -1.000000E+01  -1.000000E+01  -1.000000E+01  -1.000000E+01  -1.000000E+01  -1.000000E+01  -1.000000E+01  -1.000000E+01  -1.000000E+01  -1.000000E+01  -1.000000E+01  -1.000000E+01  -1.000000E+01  -1.000000E+01  -1.000000E+01  -1.000000E+01  -1.000000E+01  -1.000000E+01  -1.000000E+01  -1.000000E+01  -1.000000E+01  -1.000000E+01  -1.000000E+01  -1.000000E+01  -1.000000E+01  -1.000000E+01  -1.000000E+01  -1.000000E+01  -1.000000E+01  -1.000000E+01
  -1.000000E+01  -1.000000E+01  -1.000000E+01  -1.000000E+01  -1.000000E+01  -1.000000E+01  -1.000000E+01  -1.000000E+01  -1.000000E+01  -1.000000E+01  -1.000000E+01  -1.000000E+01  -1.000000E+01  -1.000000E+01  -1.000000E+01  -1.000000E+01  -1.000000E+01  -1.000000E+01  -1.000000E+01  -1.000000E+01  -1.000000E+01  -1.000000E+01  -1.000000E+01  -1.000000E+01  -1.000000E+01  -1.000000E+01  -1.000000E+01  -1.000000E+01  -1.000000E+01  -1.000000E+01  -1.000000E+01  -1.000000E+01  -1.000000E+01  -1.000000E+01  -1.000000E+01  -1.000000E+01  -1.000000E+01  -1.000000E+01  -1.000000E+01  -1.000000E+01  -1.000000E+01  -1.000000E+01  -1.000000E+01  -1.000000E+01  -1.000000E+01  -1.000000E+01  -1.000000E+01  -1.000000E+01  -1.000000E+01  -1.000000E+01  -1.000000E+01  -1.000000E+01  -1.000000E+01  -1.000000E+01  -1.000000E+01  -1.000000E+01  -1.000000E+01  -1.000000E+01  -1.000000E+01  -1.000000E+01  -1.000000E+01
  -1.000000E+01  -1.000000E+01  -1.000000E+01  -1.000000E+01  -1.000000E+01  -1.000000E+01  -1.000000E+01  -1.000000E+01  -1.000000E+01  -1.000000E+01  -1.100000E+01  -1.100000E+01  -1.100000E+01  -1.100000E+01  -1.100000E+01  -1.100000E+01  -1.100000E+01  -1.100000E+01  -1.100000E+01  -1.100000E+01  -1.100000E+01  -1.100000E+01  -1.100000E+01  -1.100000E+01  -1.100000E+01  -1.100000E+01  -1.100000E+01  -1.100000E+01  -1.100000E+01  -1.100000E+01  -1.100000E+01  -1.100000E+01  -1.100000E+01  -1.100000E+01  -1.100000E+01  -1.100000E+01  -1.100000E+01  -1.100000E+01  -1.100000E+01  -1.100000E+01  -1.100000E+01  -1.100000E+01  -1.100000E+01  -1.100000E+01  -1.100000E+01  -1.100000E+01  -1.100000E+01  -1.100000E+01  -1.100000E+01  -1.100000E+01  -1.100000E+01  -1.000000E+01  -1.000000E+01  -1.000000E+01  -1.000000E+01  -1.000000E+01  -1.000000E+01  -1.000000E+01  -1.000000E+01  -1.000000E+01  -1.000000E+01
  -1.000000E+01  -1.000000E+01  -1.000000E+01  -1.000000E+01  -1.000000E+01  -1.000000E+01  -1.000000E+01  -1.000000E+01  -1.000000E+01  -1.000000E+01  -1.100000E+01  -1.100000E+01  -1.100000E+01  -1.100000E+01  -1.100000E+01  -1.100000E+01  -1.100000E+01  -1.100000E+01  -1.100000E+01  -1.100000E+01  -1.100000E+01  -1.100000E+01  -1.100000E+01  -1.100000E+01  -1.100000E+01  -1.100000E+01  -1.100000E+01  -1.100000E+01  -1.100000E+01  -1.100000E+01  -1.100000E+01  -1.100000E+01  -1.100000E+01  -1.100000E+01  -1.100000E+01  -1.100000E+01  -1.100000E+01  -1.100000E+01  -1.100000E+01  -1.100000E+01  -1.100000E+01  -1.100000E+01  -1.100000E+01  -1.100000E+01  -1.100000E+01  -1.100000E+01  -1.100000E+01  -1.100000E+01  -1.100000E+01  -1.100000E+01  -1.100000E+01  -1.000000E+01  -1.000000E+01  -1.000000E+01  -1.000000E+01  -1.000000E+01  -1.000000E+01  -1.000000E+01  -1.000000E+01  -1.000000E+01  -1.000000E+01
  -1.000000E+01  -1.000000E+01  -1.000000E+01  -1.000000E+01  -1.000000E+01  -1.000000E+01  -1.000000E+01  -1.000000E+01  -1.000000E+01  -1.000000E+01  -1.100000E+01  -1.100000E+01  -1.100000E+01  -1.100000E+01  -1.100000E+01  -1.100000E+01  -1.100000E+01  -1.100000E+01  -1.100000E+01  -1.100000E+01  -1.100000E+01  -1.100000E+01  -1.100000E+01  -1.100000E+01  -1.100000E+01  -1.100000E+01  -1.100000E+01  -1.100000E+01  -1.100000E+01  -1.100000E+01  -1.100000E+01  -1.100000E+01  -1.100000E+01  -1.100000E+01  -1.100000E+01  -1.100000E+01  -1.100000E+01  -1.100000E+01  -1.100000E+01  -1.100000E+01  -1.100000E+01  -1.100000E+01  -1.100000E+01  -1.100000E+01  -1.100000E+01  -1.100000E+01  -1.100000E+01  -1.100000E+01  -1.100000E+01  -1.100000E+01  -1.100000E+01  -1.000000E+01  -1.000000E+01  -1.000000E+01  -1.000000E+01  -1.000000E+01  -1.000000E+01  -1.000000E+01  -1.000000E+01  -1.000000E+01  -1.000000E+01
  -1.000000E+01  -1.000000E+01  -1.000000E+01  -1.000000E+01  -1.000000E+01  -1.000000E+01  -1.000000E+01  -1.000000E+01  -1.000000E+01  -1.000000E+01  -1.100000E+01  -1.100000E+01  -1.100000E+01  -1.100000E+01  -1.100000E+01  -1.100000E+01  -1.100000E+01  -1.100000E+01  -1.100000E+01  -1.100000E+01  -1.100000E+01  -1.100000E+01  -1.100000E+01  -1.100000E+01  -1.100000E+01  -1.100000E+01  -1.100000E+01  -1.100000E+01  -1.100000E+01  -1.100000E+01  -1.100000E+01  -1.100000E+01  -1.100000E+01  -1.100000E+01  -1.100000E+01  -1.100000E+01  -1.100000E+01  -1.100000E+01  -1.100000E+01  -1.100000E+01  -1.100000E+01  -1.100000E+01  -1.100000E+01  -1.100000E+01  -1.100000E+01  -1.100000E+01  -1.100000E+01  -1.100000E+01  -1.100000E+01  -1.100000E+01  -1.100000E+01  -1.000000E+01  -1.000000E+01  -1.000000E+01  -1.000000E+01  -1.000000E+01  -1.000000E+01  -1.000000E+01  -1.000000E+01  -1.000000E+01  -1.000000E+01
  -1.000000E+01  -1.000000E+01  -1.000000E+01  -1.000000E+01  -1.000000E+01  -1.000000E+01  -1.000000E+01  -1.000000E+01  -1.000000E+01  -1.000000E+01  -1.100000E+01  -1.100000E+01  -1.100000E+01  -1.100000E+01  -1.100000E+01  -1.100000E+01  -1.100000E+01  -1.100000E+01  -1.100000E+01  -1.100000E+01  -1.100000E+01  -1.100000E+01  -1.100000E+01  -1.100000E+01  -1.100000E+01  -1.100000E+01  -1.100000E+01  -1.100000E+01  -1.100000E+01  -1.100000E+01  -1.100000E+01  -1.100000E+01  -1.100000E+01  -1.100000E+01  -1.100000E+01  -1.100000E+01  -1.100000E+01  -1.100000E+01  -1.100000E+01  -1.100000E+01  -1.100000E+01  -1.100000E+01  -1.100000E+01  -1.100000E+01  -1.100000E+01  -1.100000E+01  -1.100000E+01  -1.100000E+01  -1.100000E+01  -1.100000E+01  -1.100000E+01  -1.000000E+01  -1.000000E+01  -1.000000E+01  -1.000000E+01  -1.000000E+01  -1.000000E+01  -1.000000E+01  -1.000000E+01  -1.000000E+01  -1.000000E+01
  -1.000000E+01  -1.000000E+01  -1.000000E+01  -1.000000E+01  -1.000000E+01  -1.000000E+01  -1.000000E+01  -1.000000E+01  -1.000000E+01  -1.000000E+01  -1.100000E+01  -1.100000E+01  -1.100000E+01  -1.100000E+01  -1.100000E+01  -1.100000E+01  -1.100000E+01  -1.100000E+01  -1.100000E+01  -1.100000E+01  -1.100000E+01  -1.100000E+01  -1.100000E+01  -1.100000E+01  -1.100000E+01  -1.100000E+01  -1.100000E+01  -1.100000E+01  -1.100000E+01  -1.100000E+01  -1.100000E+01  -1.100000E+01  -1.100000E+01  -1.100000E+01  -1.100000E+01  -1.100000E+01  -1.100000E+01  -1.100000E+01  -1.100000E+01  -1.100000E+01  -1.100000E+01  -1.100000E+01  -1.100000E+01  -1.100000E+01  -1.100000E+01  -1.100000E+01  -1.100000E+01  -1.100000E+01  -1.100000E+01  -1.100000E+01  -1.100000E+01  -1.000000E+01  -1.000000E+01  -1.000000E+01  -1.000000E+01  -1.000000E+01  -1.000000E+01  -1.000000E+01  -1.000000E+01  -1.000000E+01  -1.000000E+01
  -1.000000E+01  -1.000000E+01  -1.000000E+01  -1.000000E+01  -1.000000E+01  -1.000000E+01  -1.000000E+01  -1.000000E+01  -1.000000E+01  -1.000000E+01  -1.100000E+01  -1.100000E+01  -1.100000E+01  -1.100000E+01  -1.100000E+01  -1.100000E+01  -1.100000E+01  -1.100000E+01  -1.100000E+01  -1.100000E+01  -1.100000E+01  -1.100000E+01  -1.100000E+01  -1.100000E+01  -1.100000E+01  -1.100000E+01  -1.100000E+01  -1.100000E+01  -1.100000E+01  -1.100000E+01  -1.100000E+01  -1.100000E+01  -1.100000E+01  -1.100000E+01  -1.100000E+01  -1.100000E+01  -1.100000E+01  -1.100000E+01  -1.100000E+01  -1.100000E+01  -1.100000E+01  -1.100000E+01  -1.100000E+01  -1.100000E+01  -1.100000E+01  -1.100000E+01  -1.100000E+01  -1.100000E+01  -1.100000E+01  -1.100000E+01  -1.100000E+01  -1.000000E+01  -1.000000E+01  -1.000000E+01  -1.000000E+01  -1.000000E+01  -1.000000E+01  -1.000000E+01  -1.000000E+01  -1.000000E+01  -1.000000E+01
  -1.000000E+01  -1.000000E+01  -1.000000E+01  -1.000000E+01  -1.000000E+01  -1.000000E+01  -1.000000E+01  -1.000000E+01  -1.000000E+01  -1.000000E+01  -1.100000E+01  -1.100000E+01  -1.100000E+01  -1.100000E+01  -1.100000E+01  -1.100000E+01  -1.100000E+01  -1.100000E+01  -1.100000E+01  -1.100000E+01  -1.100000E+01  -1.100000E+01  -1.100000E+01  -1.100000E+01  -1.100000E+01  -1.100000E+01  -1.100000E+01  -1.100000E+01  -1.100000E+01  -1.100000E+01  -1.100000E+01  -1.100000E+01  -1.100000E+01  -1.100000E+01  -1.100000E+01  -1.100000E+01  -1.100000E+01  -1.100000E+01  -1.100000E+01  -1.100000E+01  -1.100000E+01  -1.100000E+01  -1.100000E+01  -1.100000E+01  -1.100000E+01  -1.100000E+01  -1.100000E+01  -1.100000E+01  -1.100000E+01  -1.100000E+01  -1.100000E+01  -1.000000E+01  -1.000000E+01  -1.000000E+01  -1.000000E+01  -1.000000E+01  -1.000000E+01  -1.000000E+01  -1.000000E+01  -1.000000E+01  -1.000000E+01
  -1.000000E+01  -1.000000E+01  -1.000000E+01  -1.000000E+01  -1.000000E+01  -1.000000E+01  -1.000000E+01  -1.000000E+01  -1.000000E+01  -1.000000E+01  -1.100000E+01  -1.100000E+01  -1.100000E+01  -1.100000E+01  -1.100000E+01  -1.100000E+01  -1.100000E+01  -1.100000E+01  -1.100000E+01  -1.100000E+01  -1.100000E+01  -1.100000E+01  -1.100000E+01  -1.100000E+01  -1.100000E+01  -1.100000E+01  -1.100000E+01  -1.100000E+01  -1.100000E+01  -1.100000E+01  -1.100000E+01  -1.100000E+01  -1.100000E+01  -1.100000E+01  -1.100000E+01  -1.100000E+01  -1.100000E+01  -1.100000E+01  -1.100000E+01  -1.100000E+01  -1.100000E+01  -1.100000E+01  -1.100000E+01  -1.100000E+01  -1.100000E+01  -1.100000E+01  -1.100000E+01  -1.100000E+01  -1.100000E+01  -1.100000E+01  -1.100000E+01  -1.000000E+01  -1.000000E+01  -1.000000E+01  -1.000000E+01  -1.000000E+01  -1.000000E+01  -1.000000E+01  -1.000000E+01  -1.000000E+01  -1.000000E+01
  -1.000000E+01  -1.000000E+01  -1.000000E+01  -1.000000E+01  -1.000000E+01  -1.000000E+01  -1.000000E+01  -1.000000E+01  -1.000000E+01  -1.000000E+01  -1.100000E+01  -1.100000E+01  -1.100000E+01  -1.100000E+01  -1.100000E+01  -1.100000E+01  -1.100000E+01  -1.100000E+01  -1.100000E+01  -1.100000E+01  -1.100000E+01  -1.100000E+01  -1.100000E+01  -1.100000E+01  -1.100000E+01  -1.100000E+01  -1.100000E+01  -1.100000E+01  -1.100000E+01  -1.100000E+01  -1.100000E+01  -1.100000E+01  -1.100000E+01  -1.100000E+01  -1.100000E+01  -1.100000E+01  -1.100000E+01  -1.100000E+01  -1.100000E+01  -1.100000E+01  -1.100000E+01  -1.100000E+01  -1.100000E+01  -1.100000E+01  -1.100000E+01  -1.100000E+01  -1.100000E+01  -1.100000E+01  -1.100000E+01  -1.100000E+01  -1.100000E+01  -1.000000E+01  -1.000000E+01  -1.000000E+01  -1.000000E+01  -1.000000E+01  -1.000000E+01  -1.000000E+01  -1.000000E+01  -1.000000E+01  -1.000000E+01
  -1.000000E+01  -1.000000E+01  -1.000000E+01  -1.000000E+01  -1.000000E+01  -1.000000E+01  -1.000000E+01  -1.000000E+01  -1.000000E+01  -1.000000E+01  -1.100000E+01  -1.100000E+01  -1.100000E+01  -1.100000E+01  -1.100000E+01  -1.100000E+01  -1.100000E+01  -1.100000E+01  -1.100000E+01  -1.100000E+01  -1.100000E+01  -1.100000E+01  -1.100000E+01  -1.100000E+01  -1.100000E+01  -1.100000E+01  -1.100000E+01  -1.100000E+01  -1.100000E+01  -1.100000E+01  -1.100000E+01  -1.100000E+01  -1.100000E+01  -1.100000E+01  -1.100000E+01  -1.100000E+01  -1.100000E+01  -1.100000E+01  -1.100000E+01  -1.100000E+01  -1.100000E+01  -1.100000E+01  -1.100000E+01  -1.100000E+01  -1.100000E+01  -1.100000E+01  -1.100000E+01  -1.100000E+01  -1.100000E+01  -1.100000E+01  -1.100000E+01  -1.000000E+01  -1.000000E+01  -1.000000E+01  -1.000000E+01  -1.000000E+01  -1.000000E+01  -1.000000E+01  -1.000000E+01  -1.000000E+01  -1.000000E+01
  -1.000000E+01  -1.000000E+01  -1.000000E+01  -1.000000E+01  -1.000000E+01  -1.000000E+01  -1.000000E+01  -1.000000E+01  -1.000000E+01  -1.000000E+01  -1.100000E+01  -1.100000E+01  -1.100000E+01  -1.100000E+01  -1.100000E+01  -1.100000E+01  -1.100000E+01  -1.100000E+01  -1.100000E+01  -1.100000E+01  -1.100000E+01  -1.100000E+01  -1.100000E+01  -1.100000E+01  -1.100000E+01  -1.100000E+01  -1.100000E+01  -1.100000E+01  -1.100000E+01  -1.100000E+01  -1.100000E+01  -1.100000E+01  -1.100000E+01  -1.100000E+01  -1.100000E+01  -1.100000E+01  -1.100000E+01  -1.100000E+01  -1.100000E+01  -1.100000E+01  -1.100000E+01  -1.100000E+01  -1.100000E+01  -1.100000E+01  -1.100000E+01  -1.100000E+01  -1.100000E+01  -1.100000E+01  -1.100000E+01  -1.100000E+01  -1.100000E+01  -1.000000E+01  -1.000000E+01  -1.000000E+01  -1.000000E+01  -1.000000E+01  -1.000000E+01  -1.000000E+01  -1.000000E+01  -1.000000E+01  -1.000000E+01
  -1.000000E+01  -1.000000E+01  -1.000000E+01  -1.000000E+01  -1.000000E+01  -1.000000E+01  -1.000000E+01  -1.000000E+01  -1.000000E+01  -1.000000E+01  -1.100000E+01  -1.100000E+01  -1.100000E+01  -1.100000E+01  -1.100000E+01  -1.100000E+01  -1.100000E+01  -1.100000E+01  -1.100000E+01  -1.100000E+01  -1.100000E+01  -1.100000E+01  -1.100000E+01  -1.100000E+01  -1.100000E+01  -1.100000E+01  -1.100000E+01  -1.100000E+01  -1.100000E+01  -1.100000E+01  -1.100000E+01  -1.100000E+01  -1.100000E+01  -1.100000E+01  -1.100000E+01  -1.100000E+01  -1.100000E+01  -1.100000E+01  -1.100000E+01  -1.100000E+01  -1.100000E+01  -1.100000E+01  -1.100000E+01  -1.100000E+01  -1.100000E+01  -1.100000E+01  -1.100000E+01  -1.100000E+01  -1.100000E+01  -1.100000E+01  -1.100000E+01  -1.000000E+01  -1.000000E+01  -1.000000E+01  -1.000000E+01  -1.000000E+01  -1.000000E+01  -1.000000E+01  -1.000000E+01  -1.000000E+01  -1.000000E+01
  -1.000000E+01  -1.000000E+01  -1.000000E+01  -1.000000E+01  -1.000000E+01  -1.000000E+01  -1.000000E+01  -1.000000E+01  -1.000000E+01  -1.000000E+01  -1.100000E+01  -1.100000E+01  -1.100000E+01  -1.100000E+01  -1.100000E+01  -1.100000E+01  -1.100000E+01  -1.100000E+01  -1.100000E+01  -1.100000E+01  -1.100000E+01  -1.100000E+01  -1.100000E+01  -1.100000E+01  -1.100000E+01  -1.100000E+01  -1.100000E+01  -1.100000E+01  -1.100000E+01  -1.100000E+01  -1.100000E+01  -1.100000E+01  -1.100000E+01  -1.100000E+01  -1.100000E+01  -1.100000E+01  -1.100000E+01  -1.100000E+01  -1.100000E+01  -1.100000E+01  -1.100000E+01  -1.100000E+01  -1.100000E+01  -1.100000E+01  -1.100000E+01  -1.100000E+01  -1.100000E+01  -1.100000E+01  -1.100000E+01  -1.100000E+01  -1.100000E+01  -1.000000E+01  -1.000000E+01  -1.000000E+01  -1.000000E+01  -1.000000E+01  -1.000000E+01  -1.000000E+01  -1.000000E+01  -1.000000E+01  -1.000000E+01
  -1.000000E+01  -1.000000E+01  -1.000000E+01  -1.000000E+01  -1.000000E+01  -1.000000E+01  -1.000000E+01  -1.000000E+01  -1.000000E+01  -1.000000E+01  -1.100000E+01  -1.100000E+01  -1.100000E+01  -1.100000E+01  -1.100000E+01  -1.100000E+01  -1.100000E+01  -1.100000E+01  -1.100000E+01  -1.100000E+01  -1.100000E+01  -1.100000E+01  -1.100000E+01  -1.100000E+01  -1.100000E+01  -1.100000E+01  -1.100000E+01  -1.100000E+01  -1.100000E+01  -1.100000E+01  -1.100000E+01  -1.100000E+01  -1.100000E+01  -1.100000E+01  -1.100000E+01  -1.100000E+01  -1.100000E+01  -1.100000E+01  -1.100000E+01  -1.100000E+01  -1.100000E+01  -1.100000E+01  -1.100000E+01  -1.100000E+01  -1.100000E+01  -1.100000E+01  -1.100000E+01  -1.100000E+01  -1.100000E+01  -1.100000E+01  -1.100000E+01  -1.000000E+01  -1.000000E+01  -1.000000E+01  -1.000000E+01  -1.000000E+01  -1.000000E+01  -1.000000E+01  -1.000000E+01  -1.000000E+01  -1.000000E+01
  -1.000000E+01  -1.000000E+01  -1.000000E+01  -1.000000E+01  -1.000000E+01  -1.000000E+01  -1.000000E+01  -1.000000E+01  -1.000000E+01  -1.000000E+01  -1.100000E+01  -1.100000E+01  -1.100000E+01  -1.100000E+01  -1.100000E+01  -1.100000E+01  -1.100000E+01  -1.100000E+01  -1.100000E+01  -1.100000E+01  -1.100000E+01  -1.100000E+01  -1.100000E+01  -1.100000E+01  -1.100000E+01  -1.100000E+01  -1.100000E+01  -1.100000E+01  -1.100000E+01  -1.100000E+01  -1.100000E+01  -1.100000E+01  -1.100000E+01  -1.100000E+01  -1.100000E+01  -1.100000E+01  -1.100000E+01  -1.100000E+01  -1.100000E+01  -1.100000E+01  -1.100000E+01  -1.100000E+01  -1.100000E+01  -1.100000E+01  -1.100000E+01  -1.100000E+01  -1.100000E+01  -1.100000E+01  -1.100000E+01  -1.100000E+01  -1.100000E+01  -1.000000E+01  -1.000000E+01  -1.000000E+01  -1.000000E+01  -1.000000E+01  -1.000000E+01  -1.000000E+01  -1.000000E+01  -1.000000E+01  -1.000000E+01
  -1.000000E+01  -1.000000E+01  -1.000000E+01  -1.000000E+01  -1.000000E+01  -1.000000E+01  -1.000000E+01  -1.000000E+01  -1.000000E+01  -1.000000E+01  -1.100000E+01  -1.100000E+01  -1.100000E+01  -1.100000E+01  -1.100000E+01  -1.100000E+01  -1.100000E+01  -1.100000E+01  -1.100000E+01  -1.100000E+01  -1.100000E+01  -1.100000E+01  -1.100000E+01  -1.100000E+01  -1.100000E+01  -1.100000E+01  -1.100000E+01  -1.100000E+01  -1.100000E+01  -1.100000E+01  -1.100000E+01  -1.100000E+01  -1.100000E+01  -1.100000E+01  -1.100000E+01  -1.100000E+01  -1.100000E+01  -1.100000E+01  -1.100000E+01  -1.100000E+01  -1.100000E+01  -1.100000E+01  -1.100000E+01  -1.100000E+01  -1.100000E+01  -1.100000E+01  -1.100000E+01  -1.100000E+01  -1.100000E+01  -1.100000E+01  -1.100000E+01  -1.000000E+01  -1.000000E+01  -1.000000E+01  -1.000000E+01  -1.000000E+01  -1.000000E+01  -1.000000E+01  -1.000000E+01  -1.000000E+01  -1.000000E+01
  -1.000000E+01  -1.000000E+01  -1.000000E+01  -1.000000E+01  -1.000000E+01  -1.000000E+01  -1.000000E+01  -1.000000E+01  -1.000000E+01  -1.000000E+01  -1.100000E+01  -1.100000E+01  -1.100000E+01  -1.100000E+01  -1.100000E+01  -1.100000E+01  -1.100000E+01  -1.100000E+01  -1.100000E+01  -1.100000E+01  -1.100000E+01  -1.100000E+01  -1.100000E+01  -1.100000E+01  -1.100000E+01  -1.100000E+01  -1.100000E+01  -1.100000E+01  -1.100000E+01  -1.100000E+01  -1.100000E+01  -1.100000E+01  -1.100000E+01  -1.100000E+01  -1.100000E+01  -1.100000E+01  -1.100000E+01  -1.100000E+01  -1.100000E+01  -1.100000E+01  -1.100000E+01  -1.100000E+01  -1.100000E+01  -1.100000E+01  -1.100000E+01  -1.100000E+01  -1.100000E+01  -1.100000E+01  -1.100000E+01  -1.100000E+01  -1.100000E+01  -1.000000E+01  -1.000000E+01  -1.000000E+01  -1.000000E+01  -1.000000E+01  -1.000000E+01  -1.000000E+01  -1.000000E+01  -1.000000E+01  -1.000000E+01
  -1.000000E+01  -1.000000E+01  -1.000000E+01  -1.000000E+01  -1.000000E+01  -1.000000E+01  -1.000000E+01  -1.000000E+01  -1.000000E+01  -1.000000E+01  -1.100000E+01  -1.100000E+01  -1.100000E+01  -1.100000E+01  -1.100000E+01  -1.100000E+01  -1.100000E+01  -1.100000E+01  -1.100000E+01  -1.100000E+01  -1.100000E+01  -1.100000E+01  -1.100000E+01  -1.100000E+01  -1.100000E+01  -1.100000E+01  -1.100000E+01  -1.100000E+01  -1.100000E+01  -1.100000E+01  -1.100000E+01  -1.100000E+01  -1.100000E+01  -1.100000E+01  -1.100000E+01  -1.100000E+01  -1.100000E+01  -1.100000E+01  -1.100000E+01  -1.100000E+01  -1.100000E+01  -1.100000E+01  -1.100000E+01  -1.100000E+01  -1.100000E+01  -1.100000E+01  -1.100000E+01  -1.100000E+01  -1.100000E+01  -1.100000E+01  -1.100000E+01  -1.000000E+01  -1.000000E+01  -1.000000E+01  -1.000000E+01  -1.000000E+01  -1.000000E+01  -1.000000E+01  -1.000000E+01  -1.000000E+01  -1.000000E+01
  -1.000000E+01  -1.000000E+01  -1.000000E+01  -1.000000E+01  -1.000000E+01  -1.000000E+01  -1.000000E+01  -1.000000E+01  -1.000000E+01  -1.000000E+01  -1.100000E+01  -1.100000E+01  -1.100000E+01  -1.100000E+01  -1.100000E+01  -1.100000E+01  -1.100000E+01  -1.100000E+01  -1.100000E+01  -1.100000E+01  -1.100000E+01  -1.100000E+01  -1.100000E+01  -1.100000E+01  -1.100000E+01  -1.100000E+01  -1.100000E+01  -1.100000E+01  -1.100000E+01  -1.100000E+01  -1.100000E+01  -1.100000E+01  -1.100000E+01  -1.100000E+01  -1.100000E+01  -1.100000E+01  -1.100000E+01  -1.100000E+01  -1.100000E+01  -1.100000E+01  -1.100000E+01  -1.100000E+01  -1.100000E+01  -1.100000E+01  -1.100000E+01  -1.100000E+01  -1.100000E+01  -1.100000E+01  -1.100000E+01  -1.100000E+01  -1.100000E+01  -1.000000E+01  -1.000000E+01  -1.000000E+01  -1.000000E+01  -1.000000E+01  -1.000000E+01  -1.000000E+01  -1.000000E+01  -1.000000E+01  -1.000000E+01
  -1.000000E+01  -1.000000E+01  -1.000000E+01  -1.000000E+01  -1.000000E+01  -1.000000E+01  -1.000000E+01  -1.000000E+01  -1.000000E+01  -1.000000E+01  -1.100000E+01  -1.100000E+01  -1.100000E+01  -1.100000E+01  -1.100000E+01  -1.100000E+01  -1.100000E+01  -1.100000E+01  -1.100000E+01  -1.100000E+01  -1.100000E+01  -1.100000E+01  -1.100000E+01  -1.100000E+01  -1.100000E+01  -1.100000E+01  -1.100000E+01  -1.100000E+01  -1.100000E+01  -1.100000E+01  -1.100000E+01  -1.100000E+01  -1.100000E+01  -1.100000E+01  -1.100000E+01  -1.100000E+01  -1.100000E+01  -1.100000E+01  -1.100000E+01  -1.100000E+01  -1.100000E+01  -1.100000E+01  -1.100000E+01  -1.100000E+01  -1.100000E+01  -1.100000E+01  -1.100000E+01  -1.100000E+01  -1.100000E+01  -1.100000E+01  -1.100000E+01  -1.000000E+01  -1.000000E+01  -1.000000E+01  -1.000000E+01  -1.000000E+01  -1.000000E+01  -1.000000E+01  -1.000000E+01  -1.000000E+01  -1.000000E+01