# swi2ex6_2
# MODFLOW-SWI Example problem documented in: 
#   Bakker, M., Schaars, F., Hughes, J.D., Langevin, C.D., Dausman, A.M., 2013, Documentation of the seawater intrusion (SWI2) package for MODFLOW: U.S. Geological Survey Techniques and Methods 6-A46, 47 p.
# 
#      -Comments are preceded by a # sign
#
#-----------------------------------------------------------------------------------------------------------------------------------------------------
# Salt Water Intrusion package
#--Dataset 1
         1         1         0        55        56         0
#--Dataset 2a
         1         0         3
#--Dataset 3a
  1.000000e-02  4.000000e-02  0.1  0.1
#--Dataset 4
        29         1          (20G13.0)         -1 
            0        0.025
#--Dataset 5
        29         1         (200G13.0)         -1 
           41           41           41           41           41           41           41           41           41           41           41           41           41           41           41           41           41           41           41           41           41           41           41           41         40.5         39.5         38.5         37.5         36.5         35.5         34.5         33.5         32.5         31.5         30.5         29.5         28.5         27.5         26.5         25.5         24.5         23.5         22.5         21.5         20.5           21           21           21           21           21           21           21           21           21           21           21           21           21           21           21           21           21           21           21           21           21           21           21           21           21           21           21           21           21           21           21           21           21           21           21           21           21           21           21           21           21           21           21           21           21           21           21           21           21           21           21           21           21           21           21           21           21           21           21           21           21           21           21           21           21           21           21           21           21           21           21           21           21           21           21           21           21           21           21           21           21           21           21           21           21           21           21           21           21           21           21           21           21           21           21           21           21           21           21           21           21           21           21           21           21           21           21           21           21           21           21           21           21           21           21           21           21           21           21           21           21           21           21           21           21           21           21           21           21           21           21           21           21           21           21           21           21           21           21           21           21           21           21           21           21           21           21           21           21           21           21           21           21           21           21
        29         1         (200G13.0)         -1 
           21           21           21           21           21           21           21           21           21           21           21           21           21           21           21           21           21           21           21           21           21           21           21           21           20           20           20           20           20           20           20           20           20           20           20           20           20           20           20           20           20           20           20           20           20           20           20           20           20           20           20           20           20           20           20           20           20           20           20           20           20           20           20           20           20           20           20           20           20           20           20           20           20           20           20           20           20           20           20           20           20           20           20           20           20           20           20           20           20           20           20           20           20           20           20           20           20           20           20           20           20           20           20           20           20           20           20           20           20           20           20           20           20           20           20           20           20           20           20           20           20           20           20           20           20           20           20           20           20           20           20           20           20           20           20           20           20           20           20           20           20           20           20           20           20           20           20           20           20           20           20           20           20           20           20           20           20           20           20           20           20           20           20           20           20           20           20           20           20           20           20           20           20           20           20           20           20           20           20           20           20           20           20           20           20           20           20           20           20           20           20           20           20           20           20           20           20           20           20           20
        29         1         (200G13.0)         -1 
           20           20           20           20           20           20           20           20           20           20           20           20           20           20           20           20           20           20           20           20           20           20           20           20         19.5         18.5         17.5         16.5         15.5         14.5         13.5         12.5         11.5         10.5          9.5          8.5          7.5          6.5          5.5          4.5          3.5          2.5          1.5          0.5         -0.5            0            0            0            0            0            0            0            0            0            0            0            0            0            0            0            0            0            0            0            0            0            0            0            0            0            0            0            0            0            0            0            0            0            0            0            0            0            0            0            0            0            0            0            0            0            0            0            0            0            0            0            0            0            0            0            0            0            0            0            0            0            0            0            0            0            0            0            0            0            0            0            0            0            0            0            0            0            0            0            0            0            0            0            0            0            0            0            0            0            0            0            0            0            0            0            0            0            0            0            0            0            0            0            0            0            0            0            0            0            0            0            0            0            0            0            0            0            0            0            0            0            0            0            0            0            0            0            0            0            0            0            0            0            0            0            0            0            0            0            0            0            0            0            0            0            0            0            0            0            0            0            0            0            0            0
#--Dataset 6
        0  2.000e-01         (200G13.0)         -1 
        0  2.000e-01         (200G13.0)         -1 
        0  2.000e-01         (200G13.0)         -1 
#--Dataset 7
        29         1           (200I13)         -1 
           -2           -2           -2           -2           -2           -2           -2           -2           -2           -2           -2           -2           -2           -2           -2           -2           -2           -2           -2           -2           -2           -2           -2           -2           -2           -2           -2           -2           -2           -2            0            0            0            0            0            0            0            0            0            0            0            0            0            0            0            0            0            0            0            0            0            0            0            0            0            0            0            0            0            0            0            0            0            0            0            0            0            0            0            0            0            0            0            0            0            0            0            0            0            0            0            0            0            0            0            0            0            0            0            0            0            0            0            0            0            0            0            0            0            0            0            0            0            0            0            0            0            0            0            0            0            0            0            0            0            0            0            0            0            0            0            0            0            0            0            0            0            0            0            0            0            0            0            0            0            0            0            0            0            0            0            0            0            0            0            0            0            0            0            0            0            0            0            0            0            0            0            0            0            0            0            0            0            0            0            0            0            0            0            0            0            0            0            0            0            0            0            0            0            0            0            0            0            0            0            0            0            0            0            0            0            0            0            0            0            0            0            0            0            0
        29         1           (200I13)         -1 
           -2           -2           -2           -2           -2           -2           -2           -2           -2           -2           -2           -2           -2           -2           -2           -2           -2           -2           -2           -2           -2           -2           -2           -2           -2           -2           -2           -2           -2           -2            0            0            0            0            0            0            0            0            0            0            0            0            0            0            0            0            0            0            0            0            0            0            0            0            0            0            0            0            0            0            0            0            0            0            0            0            0            0            0            0            0            0            0            0            0            0            0            0            0            0            0            0            0            0            0            0            0            0            0            0            0            0            0            0            0            0            0            0            0            0            0            0            0            0            0            0            0            0            0            0            0            0            0            0            0            0            0            0            0            0            0            0            0            0            0            0            0            0            0            0            0            0            0            0            0            0            0            0            0            0            0            0            0            0            0            0            0            0            0            0            0            0            0            0            0            0            0            0            0            0            0            0            0            0            0            0            0            0            0            0            0            0            0            0            0            0            0            0            0            0            0            0            0            0            0            0            0            0            0            0            0            0            0            0            0            0            0            0            0            0
        29         1           (200I13)         -1 
           -2           -2           -2           -2           -2           -2           -2           -2           -2           -2           -2           -2           -2           -2           -2           -2           -2           -2           -2           -2           -2           -2           -2           -2           -2           -2           -2           -2           -2           -2            0            0            0            0            0            0            0            0            0            0            0            0            0            0            0            0            0            0            0            0            0            0            0            0            0            0            0            0            0            0            0            0            0            0            0            0            0            0            0            0            0            0            0            0            0            0            0            0            0            0            0            0            0            0            0            0            0            0            0            0            0            0            0            0            0            0            0            0            0            0            0            0            0            0            0            0            0            0            0            0            0            0            0            0            0            0            0            0            0            0            0            0            0            0            0            0            0            0            0            0            0            0            0            0            0            0            0            0            0            0            0            0            0            0            0            0            0            0            0            0            0            0            0            0            0            0            0            0            0            0            0            0            0            0            0            0            0            0            0            0            0            0            0            0            0            0            0            0            0            0            0            0            0            0            0            0            0            0            0            0            0            0            0            0            0            0            0            0            0            0
