# swi2ex3
# MODFLOW-SWI Example problem documented in: 
#   Bakker, M., Schaars, F., Hughes, J.D., Langevin, C.D., Dausman, A.M., 2013, Documentation of the seawater intrusion (SWI2) package for MODFLOW: U.S. Geological Survey Techniques and Methods 6-A46, 47 p.
# 
#      -Comments are preceded by a # sign
#
#-----------------------------------------------------------------------------------------------------------------------------------------------------
         0  -1.0e+30         0  0.100000         1         0
00 00 00 
        15         1           (5G13.0)         -1 # TRPY(): Anisotropy factor of layers
            1            1            1
        15         1         (200G13.0)         -1 # TRANS() = Transmissivity of layer 1
           40           40           40           40           40           40           40           40           40           40           40           40           40           40           40           40           40           40           40           40           40           40           40           40           40           40           40           40           40           40           40           40           40           40           40           40           40           40           40           40           40           40           40           40           40           40           40           40           40           40           40           40           40           40           40           40           40           40           40           40           40           40           40           40           40           40           40           40           40           40           40           40           40           40           40           40           40           40           40           40           40           40           40           40           40           40           40           40           40           40           40           40           40           40           40           40           40           40           40           40           40           40           40           40           40           40           40           40           40           40           40           40           40           40           40           40           40           40           40           40           40           40           40           40           40           40           40           40           40           40           40           40           40           40           40           40           40           40           40           40           40           40           40           40           40           40           40           40           40           40           40           40           40           40           40           40           40           40           40           40           40           40           40           40           40           40           40           40           40           40           40           40           40           40           40           40           40           40           40           40           40           40           40           40           40           40           40           40           40           40           40           40           40           40           40           40           40           40           40           40
        15         1         (200G13.0)         -1 # VCONT() = Vert. leakance of layer 1
        0.005        0.005        0.005        0.005        0.005        0.005        0.005        0.005        0.005        0.005        0.005        0.005        0.005        0.005        0.005        0.005        0.005        0.005        0.005        0.005        0.005        0.005        0.005        0.005        0.005        0.005        0.005        0.005        0.005        0.005        0.005        0.005        0.005        0.005        0.005        0.005        0.005        0.005        0.005        0.005        0.005        0.005        0.005        0.005        0.005        0.005        0.005        0.005        0.005        0.005        0.005        0.005        0.005        0.005        0.005        0.005        0.005        0.005        0.005        0.005        0.005        0.005        0.005        0.005        0.005        0.005        0.005        0.005        0.005        0.005        0.005        0.005        0.005        0.005        0.005        0.005        0.005        0.005        0.005        0.005        0.005        0.005        0.005        0.005        0.005        0.005        0.005        0.005        0.005        0.005        0.005        0.005        0.005        0.005        0.005        0.005        0.005        0.005        0.005        0.005        0.005        0.005        0.005        0.005        0.005        0.005        0.005        0.005        0.005        0.005        0.005        0.005        0.005        0.005        0.005        0.005        0.005        0.005        0.005        0.005        0.005        0.005        0.005        0.005        0.005        0.005        0.005        0.005        0.005        0.005        0.005        0.005        0.005        0.005        0.005        0.005        0.005        0.005        0.005        0.005        0.005        0.005        0.005        0.005        0.005        0.005        0.005        0.005        0.005        0.005        0.005        0.005        0.005        0.005        0.005        0.005        0.005        0.005        0.005        0.005        0.005        0.005        0.005        0.005        0.005        0.005        0.005        0.005        0.005        0.005        0.005        0.005        0.005        0.005        0.005        0.005        0.005        0.005        0.005        0.005        0.005        0.005        0.005        0.005        0.005        0.005        0.005        0.005        0.005        0.005        0.005        0.005        0.005        0.005        0.005        0.005        0.005        0.005        0.005        0.005
        15         1         (200G13.0)         -1 # TRANS() = Transmissivity of layer 2
            1            1            1            1            1            1            1            1            1            1            1            1            1            1            1            1            1            1            1            1            1            1            1            1            1            1            1            1            1            1            1            1            1            1            1            1            1            1            1            1            1            1            1            1            1            1            1            1            1            1            1            1            1            1            1            1            1            1            1            1            1            1            1            1            1            1            1            1            1            1            1            1            1            1            1            1            1            1            1            1            1            1            1            1            1            1            1            1            1            1            1            1            1            1            1            1            1            1            1            1            1            1            1            1            1            1            1            1            1            1            1            1            1            1            1            1            1            1            1            1            1            1            1            1            1            1            1            1            1            1            1            1            1            1            1            1            1            1            1            1            1            1            1            1            1            1            1            1            1            1            1            1            1            1            1            1            1            1            1            1            1            1            1            1            1            1            1            1            1            1            1            1            1            1            1            1            1            1            1            1            1            1            1            1            1            1            1            1            1            1            1            1            1            1            1            1            1            1            1            1
        15         1         (200G13.0)         -1 # VCONT() = Vert. leakance of layer 2
        0.005        0.005        0.005        0.005        0.005        0.005        0.005        0.005        0.005        0.005        0.005        0.005        0.005        0.005        0.005        0.005        0.005        0.005        0.005        0.005        0.005        0.005        0.005        0.005        0.005        0.005        0.005        0.005        0.005        0.005        0.005        0.005        0.005        0.005        0.005        0.005        0.005        0.005        0.005        0.005        0.005        0.005        0.005        0.005        0.005        0.005        0.005        0.005        0.005        0.005        0.005        0.005        0.005        0.005        0.005        0.005        0.005        0.005        0.005        0.005        0.005        0.005        0.005        0.005        0.005        0.005        0.005        0.005        0.005        0.005        0.005        0.005        0.005        0.005        0.005        0.005        0.005        0.005        0.005        0.005        0.005        0.005        0.005        0.005        0.005        0.005        0.005        0.005        0.005        0.005        0.005        0.005        0.005        0.005        0.005        0.005        0.005        0.005        0.005        0.005        0.005        0.005        0.005        0.005        0.005        0.005        0.005        0.005        0.005        0.005        0.005        0.005        0.005        0.005        0.005        0.005        0.005        0.005        0.005        0.005        0.005        0.005        0.005        0.005        0.005        0.005        0.005        0.005        0.005        0.005        0.005        0.005        0.005        0.005        0.005        0.005        0.005        0.005        0.005        0.005        0.005        0.005        0.005        0.005        0.005        0.005        0.005        0.005        0.005        0.005        0.005        0.005        0.005        0.005        0.005        0.005        0.005        0.005        0.005        0.005        0.005        0.005        0.005        0.005        0.005        0.005        0.005        0.005        0.005        0.005        0.005        0.005        0.005        0.005        0.005        0.005        0.005        0.005        0.005        0.005        0.005        0.005        0.005        0.005        0.005        0.005        0.005        0.005        0.005        0.005        0.005        0.005        0.005        0.005        0.005        0.005        0.005        0.005        0.005        0.005
        15         1         (200G13.0)         -1 # TRANS() = Transmissivity of layer 3
           80           80           80           80           80           80           80           80           80           80           80           80           80           80           80           80           80           80           80           80           80           80           80           80           80           80           80           80           80           80           80           80           80           80           80           80           80           80           80           80           80           80           80           80           80           80           80           80           80           80           80           80           80           80           80           80           80           80           80           80           80           80           80           80           80           80           80           80           80           80           80           80           80           80           80           80           80           80           80           80           80           80           80           80           80           80           80           80           80           80           80           80           80           80           80           80           80           80           80           80           80           80           80           80           80           80           80           80           80           80           80           80           80           80           80           80           80           80           80           80           80           80           80           80           80           80           80           80           80           80           80           80           80           80           80           80           80           80           80           80           80           80           80           80           80           80           80           80           80           80           80           80           80           80           80           80           80           80           80           80           80           80           80           80           80           80           80           80           80           80           80           80           80           80           80           80           80           80           80           80           80           80           80           80           80           80           80           80           80           80           80           80           80           80           80           80           80           80           80           80
