# swi2ex6_1
# MODFLOW-SWI Example problem documented in: 
#   Bakker, M., Schaars, F., Hughes, J.D., Langevin, C.D., Dausman, A.M., 2013, Documentation of the seawater intrusion (SWI2) package for MODFLOW: U.S. Geological Survey Techniques and Methods 6-A46, 47 p.
# 
#-----------------------------------------------------------------------------------------------------------------------------------------------------
# GHB
        30         0
        30         0
        1         1         1  5.000000e+01  4.000000e-01
        1         1         2  5.000000e+01  4.000000e-01
        1         1         3  5.000000e+01  4.000000e-01
        1         1         4  5.000000e+01  4.000000e-01
        1         1         5  5.000000e+01  4.000000e-01
        1         1         6  5.000000e+01  4.000000e-01
        1         1         7  5.000000e+01  4.000000e-01
        1         1         8  5.000000e+01  4.000000e-01
        1         1         9  5.000000e+01  4.000000e-01
        1         1        10  5.000000e+01  4.000000e-01
        1         1        11  5.000000e+01  4.000000e-01
        1         1        12  5.000000e+01  4.000000e-01
        1         1        13  5.000000e+01  4.000000e-01
        1         1        14  5.000000e+01  4.000000e-01
        1         1        15  5.000000e+01  4.000000e-01
        1         1        16  5.000000e+01  4.000000e-01
        1         1        17  5.000000e+01  4.000000e-01
        1         1        18  5.000000e+01  4.000000e-01
        1         1        19  5.000000e+01  4.000000e-01
        1         1        20  5.000000e+01  4.000000e-01
        1         1        21  5.000000e+01  4.000000e-01
        1         1        22  5.000000e+01  4.000000e-01
        1         1        23  5.000000e+01  4.000000e-01
        1         1        24  5.000000e+01  4.000000e-01
        1         1        25  5.000000e+01  4.000000e-01
        1         1        26  5.000000e+01  4.000000e-01
        1         1        27  5.000000e+01  4.000000e-01
        1         1        28  5.000000e+01  4.000000e-01
        1         1        29  5.000000e+01  4.000000e-01
        1         1        30  5.000000e+01  4.000000e-01
