# RIP-ET_EX1
# MODFLOW-RIP Example problem documented in: 
#   Maddock, T., III, Baird, K.J., Hanson, R.T., Schmid, Wolfgang, and Ajami, H., 2012, RIP-ET: A riparian evapotranspiration package for MODFLOW-2005: U.S. Geological Survey Techniques and Methods 6-A39, 76 p.
# 
#      -Comments are preceded by a # sign
#
#-----------------------------------------------------------------------------------------------------------------------------------------------------

1200 30 1  0                                              # MXITER,ITER1,NPCOND      NPCOND 1 - mod. incomplete, 2 - polynomial
1E-6    0.0001  1.00   2        1        3       1     4  # HCLOSE,      RCLOSE,    RELAX,    NBPOL,     IPRPCG,   MUTPCG    DAMP   NTHREADPCG ==>HCLOSE(head),RCLOSE(FLOWRATE: should be rel. high for m3/DAY)