# RIP-ET_EX1
# MODFLOW-RIP Example problem documented in: 
#   Maddock, T., III, Baird, K.J., Hanson, R.T., Schmid, Wolfgang, and Ajami, H., 2012, RIP-ET: A riparian evapotranspiration package for MODFLOW-2005: U.S. Geological Survey Techniques and Methods 6-A39, 76 p.
#
#-----------------------------------------------------------------------------------------------------------------------------------------------------
        25         1         0         0         1     1.486        -1         0
        25         0         0
    1    2    2    1    1           100.     3796.     .0924     3776.     3786.
    1    2    3    1    2             0.        0.     .0924     3773.     3783.
    1    2    4    1    3             0.        0.     .0924     3769.     3779.
    1    3    4    1    4             0.        0.     .0924     3768.     3778.
    1    4    4    1    5             0.        0.     .0924     3767.     3777.
    1    4    5    1    6             0.        0.     .0924     3765.     3775.
    1    4    6    1    7             0.        0.     .0924     3763.     3773.
    1    4    7    1    8             0.        0.     .0924     3758.     3768.
    1    4    8    1    9             0.        0.     .0924     3754.     3764.
    1    4    9    1   10             0.        0.     .0924     3750.     3760.
    1    4   10    1   11             0.        0.     .0924     3747.     3757.
    1    4   11    1   12             0.        0.     .0924     3743.     3753.
    1    3   11    1   13             0.        0.     .0924     3742.     3752.
    1    3   12    1   14             0.        0.     .0924     3739.     3749.
    1    3   13    1   15             0.        0.     .0924     3736.     3746.
    1    3   14    1   16             0.        0.     .0924     3732.     3742.
    1    3   15    1   17             0.        0.     .0924     3728.     3738.
    1    3   16    1   18             0.        0.     .0924     3727.     3737.
    1    4   16    1   19             0.        0.     .0924     3726.     3736.
    1    5   16    1   20             0.        0.     .0924     3725.     3735.
    1    6   16    1   21             0.        0.     .0924     3724.     3734.
    1    6   17    1   22             0.        0.     .0924     3721.     3731.
    1    6   18    1   23             0.        0.     .0924     3717.     3727.
    1    6   19    1   24             0.        0.     .0924     3714.     3724.
    1    6   20    1   25             0.        0.     .0924     3710.     3720.
      100.   .000568       .03
      100.   .000758       .03
      100.   .000189       .03
      100.   .000189       .03
      100.   .000379       .03
      100.   .000379       .03
      100.   .000947       .03
      100.   .000758       .03
      100.   .000758       .03
      100.   .000568       .03
      100.   .000758       .03
      100.   .000189       .03
      100.   .000189       .03
      100.   .000568       .03
      100.   .000568       .03
      100.   .000758       .03
      100.   .000758       .03
      100.   .000189       .03
      100.   .000189       .03
      100.   .000189       .03
      100.   .000189       .03
      100.   .000568       .03
      100.   .000758       .03
      100.   .000568       .03
      100.   .000758       .03
-1 0 0
