# RIP-ET_EX1
# MODFLOW-RIP Example problem documented in: 
#   Maddock, T., III, Baird, K.J., Hanson, R.T., Schmid, Wolfgang, and Ajami, H., 2012, RIP-ET: A riparian evapotranspiration package for MODFLOW-2005: U.S. Geological Survey Techniques and Methods 6-A39, 76 p.
# 
#      -Comments are preceded by a # sign
#
#-----------------------------------------------------------------------------------------------------------------------------------------------------
# Riparian ET Test Model, 2 Season Model
1 12 20 2 1 1
0
CONSTANT 5280.0000        # DELR
CONSTANT 5280.0000        # DELC
EXTERNAL 45 1.0 (FREE) 7  # TOP
CONSTANT 3500             # BOT
15778800. 1 1.0000000 TR
15778800. 1 1.0000000 TR
