# RIP-ET_EX1
# MODFLOW-RIP Example problem documented in: 
#   Maddock, T., III, Baird, K.J., Hanson, R.T., Schmid, Wolfgang, and Ajami, H., 2012, RIP-ET: A riparian evapotranspiration package for MODFLOW-2005: U.S. Geological Survey Techniques and Methods 6-A39, 76 p.
#
#-----------------------------------------------------------------------------------------------------------------------------------------------------
100 5
1.0000000 1E-6 1 0.0 0
