# test1tr
# MODFLOW-2005 Example problem documented in: 
#   Harbaugh, A.W., 2005, MODFLOW-2005, the U.S. Geological Survey modular ground-water model -- the Ground-Water Flow Process: U.S. Geological Survey Techniques and Methods 6-A16.
#   Harbaugh, A.W., Banta, E.R., Hill, M.C. and McDonald, M.G., 2000, MODFLOW-2000, The U.S. Geological Survey Modular Ground-Water Model - User Guide to Modularization Concepts and the Ground-Water Flow Process: U.S Geological Survey Open-File Report 2000-92, 121 p., https://doi.org/10.3133/ofr200092
#   Prudic. D.E., Konikow, L.F., and Banta, E.R., 2004, A new streamflow-routing (SFR1) package to simulate stream-aquifer interaction with MODFLOW-2000: U.S Geological Survey Open-File Report 2004-1042, 104 p., https://doi.org/10.3133/ofr20041042
# 
#-----------------------------------------------------------------------------------------------------------------------------------------------------
HEAD PRINT FORMAT   4
DRAWDOWN PRINT FORMAT   0
HEAD SAVE FORMAT (10F10.3) LABEL
HEAD SAVE UNIT 58
PERIOD   1 STEP   1
    PRINT BUDGET
    PRINT HEAD
    SAVE BUDGET
PERIOD   1 STEP   5
    PRINT BUDGET
    PRINT HEAD
    SAVE BUDGET                   
PERIOD   1 STEP   10
    PRINT BUDGET
    PRINT HEAD
    SAVE BUDGET     
PERIOD   1 STEP   13
    PRINT BUDGET
    PRINT HEAD
    SAVE BUDGET           
PERIOD   1 STEP   15
    PRINT BUDGET
    PRINT HEAD
    SAVE BUDGET          
PERIOD   1 STEP   20
    PRINT BUDGET
    PRINT HEAD
    SAVE BUDGET       
PERIOD   1 STEP   25
    PRINT BUDGET
    PRINT HEAD
    SAVE BUDGET         
PERIOD   1 STEP   30
    PRINT BUDGET
    PRINT HEAD
    SAVE BUDGET 
PERIOD   1 STEP   33
    PRINT BUDGET
    PRINT HEAD
    SAVE BUDGET             
PERIOD   1 STEP   35
    PRINT BUDGET
    PRINT HEAD
    SAVE BUDGET        
PERIOD   1 STEP   40
    PRINT BUDGET
    PRINT HEAD
    SAVE BUDGET    
PERIOD   1 STEP   45
    PRINT BUDGET
    PRINT HEAD
    SAVE BUDGET       
PERIOD   1 STEP   50
    PRINT BUDGET
    PRINT HEAD
    SAVE HEAD       
    SAVE BUDGET     
PERIOD   2 STEP   1
    PRINT BUDGET
    PRINT HEAD
    SAVE BUDGET  
PERIOD   2 STEP   5
    PRINT BUDGET
    PRINT HEAD
    SAVE BUDGET                  
PERIOD   2 STEP   10
    PRINT BUDGET
    PRINT HEAD
    SAVE BUDGET 
PERIOD   2 STEP   13
    PRINT BUDGET
    PRINT HEAD
    SAVE BUDGET              
PERIOD   2 STEP   15
    PRINT BUDGET
    PRINT HEAD
    SAVE BUDGET          
PERIOD   2 STEP   20
    PRINT BUDGET
    PRINT HEAD
    SAVE BUDGET       
PERIOD   2 STEP   25
    PRINT BUDGET
    PRINT HEAD
    SAVE BUDGET                
PERIOD   2 STEP   30
    PRINT BUDGET
    PRINT HEAD
    SAVE BUDGET
PERIOD   2 STEP   33
    PRINT BUDGET
    PRINT HEAD
    SAVE BUDGET         
PERIOD   2 STEP   35
    PRINT BUDGET
    PRINT HEAD
    SAVE BUDGET        
PERIOD   2 STEP   40
    PRINT BUDGET
    PRINT HEAD
    SAVE BUDGET    
PERIOD   2  STEP  42
    PRINT BUDGET
    PRINT HEAD
PERIOD   2 STEP   45
    PRINT BUDGET
    PRINT HEAD
    SAVE BUDGET 
PERIOD   2 STEP   46
    PRINT BUDGET
    PRINT HEAD
    SAVE BUDGET 
PERIOD   2 STEP   47
    PRINT BUDGET
    PRINT HEAD
    SAVE BUDGET 
PERIOD   2 STEP   48
    PRINT BUDGET
    PRINT HEAD
    SAVE BUDGET
PERIOD   2 STEP   49
    PRINT BUDGET
    PRINT HEAD
    SAVE BUDGET                       
PERIOD   2 STEP   50
    PRINT BUDGET
    PRINT HEAD
    SAVE BUDGET                  