# test1ss
# MODFLOW-2005 Example problem documented in: 
#   Harbaugh, A.W., 2005, MODFLOW-2005, the U.S. Geological Survey modular ground-water model -- the Ground-Water Flow Process: U.S. Geological Survey Techniques and Methods 6-A16.
#   Harbaugh, A.W., Banta, E.R., Hill, M.C. and McDonald, M.G., 2000, MODFLOW-2000, The U.S. Geological Survey Modular Ground-Water Model - User Guide to Modularization Concepts and the Ground-Water Flow Process: U.S Geological Survey Open-File Report 2000-92, 121 p., https://doi.org/10.3133/ofr200092
# 
# Input modified for MODFLOW-OWHM by including the BAS options:
#    BUDGETDB ./output/test1ss_VolumetricBudget.txt  CUMULATIVE_HEAD_CHANGE ./output/test1ss_CumHCHG.txt  PRINT_HEAD NPER ./output/test1ss_Head.txt
#
#-----------------------------------------------------------------------------------------------------------------------------------------------------
#Test Problem 1
#Steady-state simulation of Stream-Aquifer Interaction
FREE  BUDGETDB ./output/test1ss_VolumetricBudget.txt  CUMULATIVE_HEAD_CHANGE ./output/test1ss_CumHCHG.txt  PRINT_HEAD NPER ./output/test1ss_Head.txt
INTERNAL          1 (20I4)    6     IBOUND layer  1
   1   1   0   0   0   0   0   0   0   0
   1   1   1   0   0   1   1   1   0   0
   0   1   1   1   1   1   1   1   0   0
   1   1   1   1   1   1   1   1   1   0
   1   1   1   1   1   1   1   1   1   1
   1   1   1   1   1   1   1   1   1   1
   1   1   1   1   1   1   1   1   1   0
   0   1   1   1   1   1   1   1   1   0
   0   1   1   1   1   1   1   1   1   0
   0   1   1   1   1   1   1   1   1   1
   0   1   1   1   1   1   1   1   1   0
   1   1   1   1   1   1   1   1   1   0
   1   1   1   1   1   1   1   1   1   0
   0   1   1   1   1   1   1   1   1   0
   0   0   1   1   1   1   0   0   0   0
   6999.0                           HNOFLO
INTERNAL   1.000E+00 (10F7.0)    0  SHEAD layer  1
  1050.  1050.  6999.  6999.  6999.  6999.  6999.  6999.  6999.  6999.   
  1050.  1050.  1050.  6999.  6999.  1050.  1050.  1050.  6999.  6999.   
  6999.  1050.  1050.  1050.  1050.  1050.  1050.  1050.  6999.  6999.   
  1050.  1050.  1050.  1050.  1050.  1050.  1050.  1050.  1050.  6999.   
  1050.  1050.  1050.  1050.  1050.  1050.  1050.  1050.  1050.  1050.   
  1050.  1050.  1050.  1050.  1050.  1050.  1050.  1050.  1050.  1050.   
  1050.  1050.  1050.  1050.  1050.  1050.  1050.  1050.  1050.  6999.   
  6999.  1050.  1050.  1050.  1050.  1050.  1050.  1050.  1050.  6999.   
  6999.  1050.  1050.  1050.  1050.  1050.  1050.  1050.  1050.  6999.   
  6999.  1050.  1050.  1050.  1050.  1050.  1050.  1050.  1050.  1050.   
  6999.  1050.  1050.  1050.  1050.  1050.  1050.  1050.  1050.  6999.   
  1050.  1050.  1050.  1050.  1050.  1050.  1050.  1050.  1050.  6999.   
   994.   999.  1050.  1050.  1050.  1050.  1050.  1050.  1050.  6999.   
  6999.  1050.  1050.  1050.  1050.  1050.  1050.  1050.  1050.  6999.   
  6999.  6999.  1011.  1050.  1050.  1050.  6999.  6999.  6999.  6999.    